@<TRIPOS>MOLECULE
*****
 38 42 0 0 0
SMALL
GASTEIGER

@<TRIPOS>ATOM
      1 C         140.1122  143.2912  163.6847 C.ar    1  UNL1        0.1132
      2 N         141.3585  143.1718  162.8586 N.ar    1  UNL1       -0.2112
      3 C         141.6111  144.1368  161.7384 C.ar    1  UNL1        0.2219
      4 N         140.6174  145.2212  161.4442 N.ar    1  UNL1       -0.2096
      5 C         139.3710  145.3406  162.2704 C.ar    1  UNL1        0.1329
      6 C         139.1184  144.3756  163.3906 C.ar    1  UNL1        0.1768
      7 F         137.8721  144.4950  164.2166 F       1  UNL1       -0.2009
      8 C         140.1181  140.0523  170.8354 C.3     1  UNL1        0.0718
      9 C         139.9680  140.4367  169.3933 C.ar    1  UNL1        0.1207
     10 N         139.2608  139.6398  168.3374 N.ar    1  UNL1       -0.2287
     11 C         139.3545  140.3961  167.0454 C.ar    1  UNL1        0.1256
     12 C         138.8420  140.0968  165.6678 C.ar    1  UNL1        0.1591
     13 F         138.0769  138.8325  165.4105 F       1  UNL1       -0.2025
     14 C         139.0945  141.0619  164.5475 C.ar    1  UNL1        0.0329
     15 C         139.8596  142.3261  164.8049 C.ar    1  UNL1        0.0238
     16 C         140.3721  142.6254  166.1826 C.ar    1  UNL1        0.0205
     17 C         140.1196  141.6604  167.3028 C.ar    1  UNL1        0.0808
     18 N         140.4987  141.6854  168.7538 N.ar    1  UNL1       -0.3167
     19 C         141.2727  142.7691  169.4442 C.3     1  UNL1        0.0867
     20 C         142.7494  142.6160  169.6585 C.3     1  UNL1        0.0245
     21 C         140.5701  144.0059  169.9203 C.3     1  UNL1        0.0245
     22 N         142.8574  144.0174  160.9123 N.pl3   1  UNL1       -0.2680
     23 H         143.5849  144.6717  161.0215 H       1  UNL1        0.1565
     24 C         142.9954  142.9010  159.9199 C.ar    1  UNL1        0.1339
     25 C         143.4109  143.1983  158.5096 C.ar    1  UNL1        0.0342
     26 C         143.5489  142.0820  157.5173 C.ar    1  UNL1        0.0011
     27 C         143.2713  140.6684  157.9353 C.ar    1  UNL1        0.0076
     28 C         142.8557  140.3711  159.3455 C.ar    1  UNL1        0.0591
     29 N         142.7178  141.4874  160.3379 N.ar    1  UNL1       -0.2351
     30 C         142.5781  138.9575  159.7635 C.3     1  UNL1        0.0629
     31 C         142.7160  137.8412  158.7712 C.3     1  UNL1        0.0787
     32 N         143.1316  138.1384  157.3608 N.3     1  UNL1       -0.2673
     33 C         143.4092  139.5520  156.9429 C.3     1  UNL1        0.1004
     34 C         143.2695  137.0221  156.3685 C.3     1  UNL1        0.0899
     35 C         142.2099  135.9643  156.2775 C.3     1  UNL1        0.0897
     36 N         142.5618  134.5270  156.5228 N.3     1  UNL1       -0.2691
     37 C         143.5408  134.1682  157.6011 C.3     1  UNL1        0.0897
     38 C         141.9349  133.4485  155.6899 C.3     1  UNL1        0.0897
@<TRIPOS>BOND
     1     8     9    1
     2     9    10   ar
     3    10    11   ar
     4    11    12   ar
     5    12    13    1
     6    12    14   ar
     7    14    15   ar
     8    15     1    1
     9     1     2   ar
    10     2     3   ar
    11     3    22    1
    12    22    24    1
    13    24    25   ar
    14    25    26   ar
    15    26    27   ar
    16    27    28   ar
    17    28    29   ar
    18    28    30    1
    19    30    31    1
    20    31    32    1
    21    32    34    1
    22    34    35    1
    23    35    36    1
    24    36    37    1
    25    36    38    1
    26    32    33    1
    27     3     4   ar
    28     4     5   ar
    29     5     6   ar
    30     6     7    1
    31    15    16   ar
    32    16    17   ar
    33    17    18   ar
    34    18    19    1
    35    19    20    1
    36    19    21    1
    37    18     9   ar
    38    17    11   ar
    39     6     1   ar
    40    29    24   ar
    41    33    27    1
    42    22    23    1
@<TRIPOS>MOLECULE
*****
 38 42 0 0 0
SMALL
GASTEIGER

@<TRIPOS>ATOM
      1 C         140.0027  142.9360  163.8478 C.ar    1  UNL1        0.1132
      2 N         140.7167  143.8319  162.8796 N.ar    1  UNL1       -0.2112
      3 C         139.9347  144.7728  162.0116 C.ar    1  UNL1        0.2219
      4 N         138.4388  144.8178  162.1120 N.ar    1  UNL1       -0.2096
      5 C         137.7248  143.9219  163.0803 C.ar    1  UNL1        0.1329
      6 C         138.5067  142.9810  163.9482 C.ar    1  UNL1        0.1768
      7 F         137.7927  142.0852  164.9165 F       1  UNL1       -0.2009
      8 C         142.4795  138.9861  170.1634 C.3     1  UNL1        0.0718
      9 C         142.2114  139.5935  168.8184 C.ar    1  UNL1        0.1207
     10 N         142.9434  139.2794  167.5474 N.ar    1  UNL1       -0.2287
     11 C         142.3486  140.1134  166.4516 C.ar    1  UNL1        0.1256
     12 C         142.6662  140.2247  164.9899 C.ar    1  UNL1        0.1591
     13 F         143.7658  139.3950  164.3961 F       1  UNL1       -0.2025
     14 C         141.8843  141.1655  164.1219 C.ar    1  UNL1        0.0329
     15 C         140.7847  141.9952  164.7157 C.ar    1  UNL1        0.0238
     16 C         140.4671  141.8839  166.1776 C.ar    1  UNL1        0.0205
     17 C         141.2490  140.9431  167.0454 C.ar    1  UNL1        0.0808
     18 N         141.1642  140.6217  168.5082 N.ar    1  UNL1       -0.3167
     19 C         140.2013  141.2230  169.4886 C.3     1  UNL1        0.0867
     20 C         138.9880  140.4522  169.9172 C.3     1  UNL1        0.0245
     21 C         140.4516  142.5952  170.0404 C.3     1  UNL1        0.0245
     22 N         140.6487  145.6686  161.0433 N.pl3   1  UNL1       -0.2680
     23 H         140.6808  146.6396  161.2028 H       1  UNL1        0.1565
     24 C         141.3138  145.0851  159.8320 C.ar    1  UNL1        0.1339
     25 C         140.8550  145.4818  158.4601 C.ar    1  UNL1        0.0342
     26 C         141.5201  144.8982  157.2489 C.ar    1  UNL1        0.0011
     27 C         142.6441  143.9180  157.4096 C.ar    1  UNL1        0.0076
     28 C         143.1029  143.5213  158.7814 C.ar    1  UNL1        0.0591
     29 N         142.4378  144.1049  159.9926 N.ar    1  UNL1       -0.2351
     30 C         144.2269  142.5411  158.9421 C.3     1  UNL1        0.0629
     31 C         144.8920  141.9576  157.7309 C.3     1  UNL1        0.0787
     32 N         144.4332  142.3543  156.3589 N.3     1  UNL1       -0.2673
     33 C         143.3092  143.3345  156.1983 C.3     1  UNL1        0.1004
     34 C         145.0983  141.7707  155.1477 C.3     1  UNL1        0.0899
     35 C         146.5018  141.2495  155.2407 C.3     1  UNL1        0.0897
     36 N         147.6605  142.1632  154.9714 N.3     1  UNL1       -0.2691
     37 C         149.0578  141.7131  155.2792 C.3     1  UNL1        0.0897
     38 C         147.4219  143.5271  154.3944 C.3     1  UNL1        0.0897
@<TRIPOS>BOND
     1     8     9    1
     2     9    10   ar
     3    10    11   ar
     4    11    12   ar
     5    12    13    1
     6    12    14   ar
     7    14    15   ar
     8    15     1    1
     9     1     2   ar
    10     2     3   ar
    11     3    22    1
    12    22    24    1
    13    24    25   ar
    14    25    26   ar
    15    26    27   ar
    16    27    28   ar
    17    28    29   ar
    18    28    30    1
    19    30    31    1
    20    31    32    1
    21    32    34    1
    22    34    35    1
    23    35    36    1
    24    36    37    1
    25    36    38    1
    26    32    33    1
    27     3     4   ar
    28     4     5   ar
    29     5     6   ar
    30     6     7    1
    31    15    16   ar
    32    16    17   ar
    33    17    18   ar
    34    18    19    1
    35    19    20    1
    36    19    21    1
    37    18     9   ar
    38    17    11   ar
    39     6     1   ar
    40    29    24   ar
    41    33    27    1
    42    22    23    1
@<TRIPOS>MOLECULE
*****
 38 42 0 0 0
SMALL
GASTEIGER

@<TRIPOS>ATOM
      1 C         142.1762  142.6593  163.7039 C.ar    1  UNL1        0.1132
      2 N         141.4729  143.6374  162.8103 N.ar    1  UNL1       -0.2112
      3 C         142.2550  144.4355  161.8094 C.ar    1  UNL1        0.2219
      4 N         143.7402  144.2553  161.7022 N.ar    1  UNL1       -0.2096
      5 C         144.4435  143.2771  162.5959 C.ar    1  UNL1        0.1329
      6 C         143.6615  142.4791  163.5967 C.ar    1  UNL1        0.1768
      7 F         144.3647  141.5009  164.4903 F       1  UNL1       -0.2009
      8 C         139.1275  140.2468  170.5236 C.3     1  UNL1        0.0718
      9 C         139.5635  140.4866  169.1085 C.ar    1  UNL1        0.1207
     10 N         139.1655  139.6724  167.9133 N.ar    1  UNL1       -0.2287
     11 C         139.8301  140.2653  166.7063 C.ar    1  UNL1        0.1256
     12 C         139.8033  139.8827  165.2562 C.ar    1  UNL1        0.1591
     13 F         138.9944  138.7020  164.8069 F       1  UNL1       -0.2025
     14 C         140.5853  140.6807  164.2553 C.ar    1  UNL1        0.0329
     15 C         141.3942  141.8613  164.7046 C.ar    1  UNL1        0.0238
     16 C         141.4210  142.2439  166.1548 C.ar    1  UNL1        0.0205
     17 C         140.6389  141.4459  167.1556 C.ar    1  UNL1        0.0808
     18 N         140.4742  141.5827  168.6403 N.ar    1  UNL1       -0.3167
     19 C         141.1087  142.6314  169.5048 C.3     1  UNL1        0.0867
     20 C         140.3571  143.8868  169.8349 C.3     1  UNL1        0.0245
     21 C         142.4950  142.4248  170.0393 C.3     1  UNL1        0.0245
     22 N         141.5517  145.4137  160.9158 N.pl3   1  UNL1       -0.2680
     23 H         141.5403  146.3708  161.1462 H       1  UNL1        0.1565
     24 C         140.8658  144.9336  159.6711 C.ar    1  UNL1        0.1339
     25 C         141.1327  145.6101  158.3593 C.ar    1  UNL1        0.0342
     26 C         140.4468  145.1301  157.1147 C.ar    1  UNL1        0.0011
     27 C         139.4940  143.9735  157.1820 C.ar    1  UNL1        0.0076
     28 C         139.2271  143.2970  158.4939 C.ar    1  UNL1        0.0591
     29 N         139.9130  143.7770  159.7384 N.ar    1  UNL1       -0.2351
     30 C         138.2743  142.1404  158.5611 C.3     1  UNL1        0.0629
     31 C         137.5884  141.6603  157.3166 C.3     1  UNL1        0.0787
     32 N         137.8553  142.3368  156.0046 N.3     1  UNL1       -0.2673
     33 C         138.8081  143.4934  155.9373 C.3     1  UNL1        0.1004
     34 C         137.1694  141.8568  154.7600 C.3     1  UNL1        0.0899
     35 C         135.6866  142.0257  154.6081 C.3     1  UNL1        0.0897
     36 N         134.7675  140.8755  154.8950 N.3     1  UNL1       -0.2691
     37 C         135.2455  139.4671  154.7012 C.3     1  UNL1        0.0897
     38 C         133.3703  141.1339  155.3759 C.3     1  UNL1        0.0897
@<TRIPOS>BOND
     1     8     9    1
     2     9    10   ar
     3    10    11   ar
     4    11    12   ar
     5    12    13    1
     6    12    14   ar
     7    14    15   ar
     8    15     1    1
     9     1     2   ar
    10     2     3   ar
    11     3    22    1
    12    22    24    1
    13    24    25   ar
    14    25    26   ar
    15    26    27   ar
    16    27    28   ar
    17    28    29   ar
    18    28    30    1
    19    30    31    1
    20    31    32    1
    21    32    34    1
    22    34    35    1
    23    35    36    1
    24    36    37    1
    25    36    38    1
    26    32    33    1
    27     3     4   ar
    28     4     5   ar
    29     5     6   ar
    30     6     7    1
    31    15    16   ar
    32    16    17   ar
    33    17    18   ar
    34    18    19    1
    35    19    20    1
    36    19    21    1
    37    18     9   ar
    38    17    11   ar
    39     6     1   ar
    40    29    24   ar
    41    33    27    1
    42    22    23    1
@<TRIPOS>MOLECULE
*****
 38 42 0 0 0
SMALL
GASTEIGER

@<TRIPOS>ATOM
      1 C         140.0452  143.4640  163.7177 C.ar    1  UNL1        0.1132
      2 N         141.3227  143.4496  162.9317 N.ar    1  UNL1       -0.2112
      3 C         141.5441  144.4561  161.8417 C.ar    1  UNL1        0.2219
      4 N         140.4880  145.4770  161.5377 N.ar    1  UNL1       -0.2096
      5 C         139.2105  145.4914  162.3238 C.ar    1  UNL1        0.1329
      6 C         138.9891  144.4849  163.4137 C.ar    1  UNL1        0.1768
      7 F         137.7117  144.4993  164.1997 F       1  UNL1       -0.2009
      8 C         140.1669  140.0041  170.7631 C.3     1  UNL1        0.0718
      9 C         140.0011  140.4291  169.3341 C.ar    1  UNL1        0.1207
     10 N         139.3134  139.6459  168.2554 N.ar    1  UNL1       -0.2287
     11 C         139.3812  140.4446  166.9876 C.ar    1  UNL1        0.1256
     12 C         138.8728  140.1742  165.6025 C.ar    1  UNL1        0.1591
     13 F         138.1431  138.8973  165.3074 F       1  UNL1       -0.2025
     14 C         139.0941  141.1807  164.5125 C.ar    1  UNL1        0.0329
     15 C         139.8239  142.4576  164.8076 C.ar    1  UNL1        0.0238
     16 C         140.3323  142.7279  166.1927 C.ar    1  UNL1        0.0205
     17 C         140.1110  141.7215  167.2827 C.ar    1  UNL1        0.0808
     18 N         140.4941  141.7119  168.7329 N.ar    1  UNL1       -0.3167
     19 C         141.2393  142.7949  169.4551 C.3     1  UNL1        0.0867
     20 C         140.5089  144.0106  169.9436 C.3     1  UNL1        0.0245
     21 C         142.7151  142.6624  169.6888 C.3     1  UNL1        0.0245
     22 N         142.8216  144.4416  161.0557 N.pl3   1  UNL1       -0.2680
     23 H         143.4937  145.1473  161.1957 H       1  UNL1        0.1565
     24 C         143.0751  143.3520  160.0564 C.ar    1  UNL1        0.1339
     25 C         143.5642  142.0109  160.5169 C.ar    1  UNL1        0.0342
     26 C         143.8177  140.9214  159.5176 C.ar    1  UNL1        0.0011
     27 C         143.5820  141.1730  158.0578 C.ar    1  UNL1        0.0076
     28 C         143.0929  142.5141  157.5972 C.ar    1  UNL1        0.0591
     29 N         142.8394  143.6036  158.5965 N.ar    1  UNL1       -0.2351
     30 C         142.8573  142.7657  156.1374 C.3     1  UNL1        0.0629
     31 C         143.1107  141.6761  155.1381 C.3     1  UNL1        0.0787
     32 N         143.5999  140.3349  155.5986 N.3     1  UNL1       -0.2673
     33 C         143.8355  140.0834  157.0585 C.3     1  UNL1        0.1004
     34 C         143.8534  139.2454  154.5993 C.3     1  UNL1        0.0899
     35 C         142.8586  138.1353  154.4315 C.3     1  UNL1        0.0897
     36 N         142.8596  136.9770  155.3845 N.3     1  UNL1       -0.2691
     37 C         141.6058  136.6121  156.1227 C.3     1  UNL1        0.0897
     38 C         144.1143  136.1835  155.5993 C.3     1  UNL1        0.0897
@<TRIPOS>BOND
     1     8     9    1
     2     9    10   ar
     3    10    11   ar
     4    11    12   ar
     5    12    13    1
     6    12    14   ar
     7    14    15   ar
     8    15     1    1
     9     1     2   ar
    10     2     3   ar
    11     3    22    1
    12    22    24    1
    13    24    25   ar
    14    25    26   ar
    15    26    27   ar
    16    27    28   ar
    17    28    29   ar
    18    28    30    1
    19    30    31    1
    20    31    32    1
    21    32    34    1
    22    34    35    1
    23    35    36    1
    24    36    37    1
    25    36    38    1
    26    32    33    1
    27     3     4   ar
    28     4     5   ar
    29     5     6   ar
    30     6     7    1
    31    15    16   ar
    32    16    17   ar
    33    17    18   ar
    34    18    19    1
    35    19    20    1
    36    19    21    1
    37    18     9   ar
    38    17    11   ar
    39     6     1   ar
    40    29    24   ar
    41    33    27    1
    42    22    23    1
@<TRIPOS>MOLECULE
*****
 38 42 0 0 0
SMALL
GASTEIGER

@<TRIPOS>ATOM
      1 C         140.0051  143.3299  163.6394 C.ar    1  UNL1        0.1132
      2 N         140.5467  142.8562  162.3232 N.ar    1  UNL1       -0.2112
      3 C         140.7690  143.8344  161.2079 C.ar    1  UNL1        0.2219
      4 N         140.4497  145.2862  161.4089 N.ar    1  UNL1       -0.2096
      5 C         139.9081  145.7598  162.7251 C.ar    1  UNL1        0.1329
      6 C         139.6858  144.7817  163.8403 C.ar    1  UNL1        0.1768
      7 F         139.1442  145.2553  165.1565 F       1  UNL1       -0.2009
      8 C         140.1936  140.0131  170.7518 C.3     1  UNL1        0.0718
      9 C         140.0077  140.4127  169.3180 C.ar    1  UNL1        0.1207
     10 N         139.2782  139.6248  168.2707 N.ar    1  UNL1       -0.2287
     11 C         139.3382  140.3954  166.9852 C.ar    1  UNL1        0.1256
     12 C         138.7939  140.1094  165.6171 C.ar    1  UNL1        0.1591
     13 F         138.0272  138.8451  165.3642 F       1  UNL1       -0.2025
     14 C         139.0161  141.0875  164.5017 C.ar    1  UNL1        0.0329
     15 C         139.7828  142.3518  164.7546 C.ar    1  UNL1        0.0238
     16 C         140.3272  142.6378  166.1228 C.ar    1  UNL1        0.0205
     17 C         140.1049  141.6597  167.2381 C.ar    1  UNL1        0.0808
     18 N         140.5186  141.6703  168.6798 N.ar    1  UNL1       -0.3167
     19 C         141.3052  142.7492  169.3634 C.3     1  UNL1        0.0867
     20 C         140.6068  143.9683  169.8888 C.3     1  UNL1        0.0245
     21 C         142.7902  142.6091  169.5215 C.3     1  UNL1        0.0245
     22 N         141.3106  143.3608  159.8918 N.pl3   1  UNL1       -0.2680
     23 H         142.2521  143.5284  159.6579 H       1  UNL1        0.1565
     24 C         140.4176  142.6316  158.9320 C.ar    1  UNL1        0.1339
     25 C         140.4724  141.1352  158.8457 C.ar    1  UNL1        0.0342
     26 C         139.5795  140.4061  157.8859 C.ar    1  UNL1        0.0011
     27 C         138.6319  141.1736  157.0124 C.ar    1  UNL1        0.0076
     28 C         138.5771  142.6701  157.0986 C.ar    1  UNL1        0.0591
     29 N         139.4700  143.3991  158.0584 N.ar    1  UNL1       -0.2351
     30 C         137.6295  143.4375  156.2251 C.3     1  UNL1        0.0629
     31 C         136.7367  142.7085  155.2653 C.3     1  UNL1        0.0787
     32 N         136.7913  141.2119  155.1790 N.3     1  UNL1       -0.2673
     33 C         137.7390  140.4445  156.0526 C.3     1  UNL1        0.1004
     34 C         135.8985  140.4829  154.2193 C.3     1  UNL1        0.0899
     35 C         134.9442  139.4420  154.7254 C.3     1  UNL1        0.0897
     36 N         133.7799  139.8447  155.5810 N.3     1  UNL1       -0.2691
     37 C         133.1901  141.2173  155.4472 C.3     1  UNL1        0.0897
     38 C         133.2053  138.8747  156.5704 C.3     1  UNL1        0.0897
@<TRIPOS>BOND
     1     8     9    1
     2     9    10   ar
     3    10    11   ar
     4    11    12   ar
     5    12    13    1
     6    12    14   ar
     7    14    15   ar
     8    15     1    1
     9     1     2   ar
    10     2     3   ar
    11     3    22    1
    12    22    24    1
    13    24    25   ar
    14    25    26   ar
    15    26    27   ar
    16    27    28   ar
    17    28    29   ar
    18    28    30    1
    19    30    31    1
    20    31    32    1
    21    32    34    1
    22    34    35    1
    23    35    36    1
    24    36    37    1
    25    36    38    1
    26    32    33    1
    27     3     4   ar
    28     4     5   ar
    29     5     6   ar
    30     6     7    1
    31    15    16   ar
    32    16    17   ar
    33    17    18   ar
    34    18    19    1
    35    19    20    1
    36    19    21    1
    37    18     9   ar
    38    17    11   ar
    39     6     1   ar
    40    29    24   ar
    41    33    27    1
    42    22    23    1
@<TRIPOS>MOLECULE
*****
 38 42 0 0 0
SMALL
GASTEIGER

@<TRIPOS>ATOM
      1 C         138.2716  141.3481  159.1798 C.ar    1  UNL1        0.1132
      2 N         137.4038  140.5545  158.2486 N.ar    1  UNL1       -0.2112
      3 C         137.1855  141.0266  156.8416 C.ar    1  UNL1        0.2219
      4 N         137.8349  142.2922  156.3659 N.ar    1  UNL1       -0.2096
      5 C         138.7028  143.0858  157.2971 C.ar    1  UNL1        0.1329
      6 C         138.9211  142.6137  158.7040 C.ar    1  UNL1        0.1768
      7 F         139.7889  143.4073  159.6352 F       1  UNL1       -0.2009
      8 C         139.8898  141.4028  166.8611 C.3     1  UNL1        0.0718
      9 C         139.5428  141.1095  165.4315 C.ar    1  UNL1        0.1207
     10 N         139.2059  139.7622  164.8646 N.ar    1  UNL1       -0.2287
     11 C         138.9267  139.9320  163.4006 C.ar    1  UNL1        0.1256
     12 C         138.5440  138.9518  162.3316 C.ar    1  UNL1        0.1591
     13 F         138.3797  137.4996  162.6695 F       1  UNL1       -0.2025
     14 C         138.3257  139.4239  160.9246 C.ar    1  UNL1        0.0329
     15 C         138.4900  140.8760  160.5867 C.ar    1  UNL1        0.0238
     16 C         138.8727  141.8562  161.6558 C.ar    1  UNL1        0.0205
     17 C         139.0910  141.3841  163.0627 C.ar    1  UNL1        0.0808
     18 N         139.4718  142.1119  164.3179 N.ar    1  UNL1       -0.3167
     19 C         139.7353  143.5836  164.4383 C.3     1  UNL1        0.0867
     20 C         138.6881  144.4881  165.0174 C.3     1  UNL1        0.0245
     21 C         141.0459  144.1509  163.9796 C.3     1  UNL1        0.0245
     22 N         136.3177  140.2330  155.9105 N.pl3   1  UNL1       -0.2680
     23 H         136.7278  139.6769  155.2092 H       1  UNL1        0.1565
     24 C         134.8249  140.2866  156.0478 C.ar    1  UNL1        0.1339
     25 C         134.0337  141.2809  155.2507 C.ar    1  UNL1        0.0342
     26 C         132.5409  141.3344  155.3881 C.ar    1  UNL1        0.0011
     27 C         131.8395  140.3938  156.3224 C.ar    1  UNL1        0.0076
     28 C         132.6307  139.3995  157.1195 C.ar    1  UNL1        0.0591
     29 N         134.1234  139.3459  156.9822 N.ar    1  UNL1       -0.2351
     30 C         131.9292  138.4589  158.0539 C.3     1  UNL1        0.0629
     31 C         130.4365  138.5124  158.1912 C.3     1  UNL1        0.0787
     32 N         129.6452  139.5067  157.3941 N.3     1  UNL1       -0.2673
     33 C         130.3467  140.4474  156.4597 C.3     1  UNL1        0.1004
     34 C         128.1525  139.5603  157.5315 C.3     1  UNL1        0.0899
     35 C         127.4592  138.6818  158.5303 C.3     1  UNL1        0.0897
     36 N         127.4444  139.0623  159.9811 N.3     1  UNL1       -0.2691
     37 C         127.2269  138.0121  161.0297 C.3     1  UNL1        0.0897
     38 C         127.6471  140.4931  160.3833 C.3     1  UNL1        0.0897
@<TRIPOS>BOND
     1     8     9    1
     2     9    10   ar
     3    10    11   ar
     4    11    12   ar
     5    12    13    1
     6    12    14   ar
     7    14    15   ar
     8    15     1    1
     9     1     2   ar
    10     2     3   ar
    11     3    22    1
    12    22    24    1
    13    24    25   ar
    14    25    26   ar
    15    26    27   ar
    16    27    28   ar
    17    28    29   ar
    18    28    30    1
    19    30    31    1
    20    31    32    1
    21    32    34    1
    22    34    35    1
    23    35    36    1
    24    36    37    1
    25    36    38    1
    26    32    33    1
    27     3     4   ar
    28     4     5   ar
    29     5     6   ar
    30     6     7    1
    31    15    16   ar
    32    16    17   ar
    33    17    18   ar
    34    18    19    1
    35    19    20    1
    36    19    21    1
    37    18     9   ar
    38    17    11   ar
    39     6     1   ar
    40    29    24   ar
    41    33    27    1
    42    22    23    1
@<TRIPOS>MOLECULE
*****
 38 42 0 0 0
SMALL
GASTEIGER

@<TRIPOS>ATOM
      1 C         141.7751  138.4277  159.9767 C.ar    1  UNL1        0.1132
      2 N         142.7521  137.6597  159.1369 N.ar    1  UNL1       -0.2112
      3 C         142.3866  137.2594  157.7382 C.ar    1  UNL1        0.2219
      4 N         141.0440  137.6271  157.1795 N.ar    1  UNL1       -0.2096
      5 C         140.0669  138.3952  158.0194 C.ar    1  UNL1        0.1329
      6 C         140.4325  138.7955  159.4180 C.ar    1  UNL1        0.1768
      7 F         139.4554  139.5635  160.2579 F       1  UNL1       -0.2009
      8 C         141.2072  139.8822  167.6699 C.3     1  UNL1        0.0718
      9 C         141.5887  139.6902  166.2320 C.ar    1  UNL1        0.1207
     10 N         142.9389  139.9558  165.6350 N.ar    1  UNL1       -0.2287
     11 C         142.8716  139.6285  164.1726 C.ar    1  UNL1        0.1256
     12 C         143.8979  139.6961  163.0808 C.ar    1  UNL1        0.1591
     13 F         145.2896  140.1640  163.3875 F       1  UNL1       -0.2025
     14 C         143.5324  139.2959  161.6821 C.ar    1  UNL1        0.0329
     15 C         142.1406  138.8280  161.3753 C.ar    1  UNL1        0.0238
     16 C         141.1143  138.7604  162.4673 C.ar    1  UNL1        0.0205
     17 C         141.4799  139.1607  163.8659 C.ar    1  UNL1        0.0808
     18 N         140.6870  139.1988  165.1387 N.ar    1  UNL1       -0.3167
     19 C         139.2455  138.8131  165.2913 C.3     1  UNL1        0.0867
     20 C         138.8496  137.3665  165.2686 C.3     1  UNL1        0.0245
     21 C         138.1998  139.8742  165.4666 C.3     1  UNL1        0.0245
     22 N         143.3637  136.4913  156.8984 N.pl3   1  UNL1       -0.2680
     23 H         144.1444  136.9481  156.5097 H       1  UNL1        0.1565
     24 C         143.1512  135.0272  156.6506 C.ar    1  UNL1        0.1339
     25 C         142.0650  134.5737  155.7210 C.ar    1  UNL1        0.0342
     26 C         141.8526  133.1096  155.4733 C.ar    1  UNL1        0.0011
     27 C         142.7265  132.0991  156.1553 C.ar    1  UNL1        0.0076
     28 C         143.8128  132.5526  157.0849 C.ar    1  UNL1        0.0591
     29 N         144.0251  134.0166  157.3326 N.ar    1  UNL1       -0.2351
     30 C         144.6867  131.5420  157.7669 C.3     1  UNL1        0.0629
     31 C         144.4743  130.0780  157.5192 C.3     1  UNL1        0.0787
     32 N         143.3880  129.6244  156.5895 N.3     1  UNL1       -0.2673
     33 C         142.5141  130.6349  155.9075 C.3     1  UNL1        0.1004
     34 C         143.1756  128.1603  156.3418 C.3     1  UNL1        0.0899
     35 C         143.2631  127.1867  157.4796 C.3     1  UNL1        0.0897
     36 N         142.1084  127.0315  158.4243 N.3     1  UNL1       -0.2691
     37 C         140.8327  126.3994  157.9519 C.3     1  UNL1        0.0897
     38 C         142.2293  127.5082  159.8414 C.3     1  UNL1        0.0897
@<TRIPOS>BOND
     1     8     9    1
     2     9    10   ar
     3    10    11   ar
     4    11    12   ar
     5    12    13    1
     6    12    14   ar
     7    14    15   ar
     8    15     1    1
     9     1     2   ar
    10     2     3   ar
    11     3    22    1
    12    22    24    1
    13    24    25   ar
    14    25    26   ar
    15    26    27   ar
    16    27    28   ar
    17    28    29   ar
    18    28    30    1
    19    30    31    1
    20    31    32    1
    21    32    34    1
    22    34    35    1
    23    35    36    1
    24    36    37    1
    25    36    38    1
    26    32    33    1
    27     3     4   ar
    28     4     5   ar
    29     5     6   ar
    30     6     7    1
    31    15    16   ar
    32    16    17   ar
    33    17    18   ar
    34    18    19    1
    35    19    20    1
    36    19    21    1
    37    18     9   ar
    38    17    11   ar
    39     6     1   ar
    40    29    24   ar
    41    33    27    1
    42    22    23    1
@<TRIPOS>MOLECULE
*****
 38 42 0 0 0
SMALL
GASTEIGER

@<TRIPOS>ATOM
      1 C         141.5245  138.4734  159.8800 C.ar    1  UNL1        0.1132
      2 N         142.5387  137.6822  159.1084 N.ar    1  UNL1       -0.2112
      3 C         142.3049  137.3741  157.6590 C.ar    1  UNL1        0.2219
      4 N         141.0569  137.8572  156.9814 N.ar    1  UNL1       -0.2096
      5 C         140.0428  138.6484  157.7531 C.ar    1  UNL1        0.1329
      6 C         140.2766  138.9565  159.2024 C.ar    1  UNL1        0.1768
      7 F         139.2624  139.7477  159.9740 F       1  UNL1       -0.2009
      8 C         143.3315  142.3902  166.4387 C.3     1  UNL1        0.0718
      9 C         142.9381  141.4208  165.3637 C.ar    1  UNL1        0.1207
     10 N         142.5341  139.9912  165.5705 N.ar    1  UNL1       -0.2287
     11 C         142.2261  139.3976  164.2278 C.ar    1  UNL1        0.1256
     12 C         141.7786  138.0267  163.8152 C.ar    1  UNL1        0.1591
     13 F         141.5650  136.9638  164.8519 F       1  UNL1       -0.2025
     14 C         141.5448  137.7185  162.3659 C.ar    1  UNL1        0.0329
     15 C         141.7584  138.7814  161.3292 C.ar    1  UNL1        0.0238
     16 C         142.2058  140.1524  161.7419 C.ar    1  UNL1        0.0205
     17 C         142.4397  140.4605  163.1912 C.ar    1  UNL1        0.0808
     18 N         142.8797  141.7109  163.8932 N.ar    1  UNL1       -0.3167
     19 C         143.2044  143.0213  163.2394 C.3     1  UNL1        0.0867
     20 C         142.1991  144.1345  163.2506 C.3     1  UNL1        0.0245
     21 C         144.5344  143.2185  162.5745 C.3     1  UNL1        0.0245
     22 N         143.3190  136.5828  156.8874 N.pl3   1  UNL1       -0.2680
     23 H         144.1194  137.0279  156.5261 H       1  UNL1        0.1565
     24 C         143.1137  135.1135  156.6662 C.ar    1  UNL1        0.1339
     25 C         142.0077  134.6370  155.7719 C.ar    1  UNL1        0.0342
     26 C         141.8024  133.1677  155.5507 C.ar    1  UNL1        0.0011
     27 C         142.7031  132.1749  156.2238 C.ar    1  UNL1        0.0076
     28 C         143.8091  132.6513  157.1180 C.ar    1  UNL1        0.0591
     29 N         144.0144  134.1206  157.3392 N.ar    1  UNL1       -0.2351
     30 C         144.7098  131.6585  157.7910 C.3     1  UNL1        0.0629
     31 C         144.5045  130.1892  157.5698 C.3     1  UNL1        0.0787
     32 N         143.3984  129.7127  156.6756 N.3     1  UNL1       -0.2673
     33 C         142.4977  130.7055  156.0025 C.3     1  UNL1        0.1004
     34 C         143.1931  128.2434  156.4544 C.3     1  UNL1        0.0899
     35 C         142.0525  127.7648  155.6058 C.3     1  UNL1        0.0897
     36 N         140.7176  127.4873  156.2310 N.3     1  UNL1       -0.2691
     37 C         140.6360  126.7099  157.5112 C.3     1  UNL1        0.0897
     38 C         139.4641  127.9872  155.5760 C.3     1  UNL1        0.0897
@<TRIPOS>BOND
     1     8     9    1
     2     9    10   ar
     3    10    11   ar
     4    11    12   ar
     5    12    13    1
     6    12    14   ar
     7    14    15   ar
     8    15     1    1
     9     1     2   ar
    10     2     3   ar
    11     3    22    1
    12    22    24    1
    13    24    25   ar
    14    25    26   ar
    15    26    27   ar
    16    27    28   ar
    17    28    29   ar
    18    28    30    1
    19    30    31    1
    20    31    32    1
    21    32    34    1
    22    34    35    1
    23    35    36    1
    24    36    37    1
    25    36    38    1
    26    32    33    1
    27     3     4   ar
    28     4     5   ar
    29     5     6   ar
    30     6     7    1
    31    15    16   ar
    32    16    17   ar
    33    17    18   ar
    34    18    19    1
    35    19    20    1
    36    19    21    1
    37    18     9   ar
    38    17    11   ar
    39     6     1   ar
    40    29    24   ar
    41    33    27    1
    42    22    23    1
@<TRIPOS>MOLECULE
*****
 38 42 0 0 0
SMALL
GASTEIGER

@<TRIPOS>ATOM
      1 C         141.7870  138.9160  159.5921 C.ar    1  UNL1        0.1132
      2 N         141.4884  138.0338  158.4163 N.ar    1  UNL1       -0.2112
      3 C         142.3891  138.0520  157.2170 C.ar    1  UNL1        0.2219
      4 N         143.5885  138.9525  157.1935 N.ar    1  UNL1       -0.2096
      5 C         143.8871  139.8348  158.3693 C.ar    1  UNL1        0.1329
      6 C         142.9864  139.8165  159.5686 C.ar    1  UNL1        0.1768
      7 F         143.2850  140.6988  160.7443 F       1  UNL1       -0.2009
      8 C         139.2655  139.6154  166.9931 C.3     1  UNL1        0.0718
      9 C         139.4770  139.3992  165.5239 C.ar    1  UNL1        0.1207
     10 N         138.4402  138.9398  164.5421 N.ar    1  UNL1       -0.2287
     11 C         139.0848  138.8612  163.1900 C.ar    1  UNL1        0.1256
     12 C         138.5503  138.4686  161.8446 C.ar    1  UNL1        0.1591
     13 F         137.1151  138.0576  161.6984 F       1  UNL1       -0.2025
     14 C         139.4511  138.4868  160.6452 C.ar    1  UNL1        0.0329
     15 C         140.8863  138.8977  160.7913 C.ar    1  UNL1        0.0238
     16 C         141.4207  139.2904  162.1368 C.ar    1  UNL1        0.0205
     17 C         140.5200  139.2721  163.3361 C.ar    1  UNL1        0.0808
     18 N         140.7623  139.6046  164.7786 N.ar    1  UNL1       -0.3167
     19 C         142.0620  140.0622  165.3715 C.3     1  UNL1        0.0867
     20 C         143.1521  139.0691  165.6458 C.3     1  UNL1        0.0245
     21 C         142.2714  141.5129  165.6902 C.3     1  UNL1        0.0245
     22 N         142.0905  137.1698  156.0412 N.pl3   1  UNL1       -0.2680
     23 H         141.7661  137.5643  155.1996 H       1  UNL1        0.1565
     24 C         142.2861  135.6864  156.1478 C.ar    1  UNL1        0.1339
     25 C         141.3670  134.7542  155.4155 C.ar    1  UNL1        0.0342
     26 C         141.5627  133.2709  155.5221 C.ar    1  UNL1        0.0011
     27 C         142.6773  132.7197  156.3609 C.ar    1  UNL1        0.0076
     28 C         143.5964  133.6519  157.0932 C.ar    1  UNL1        0.0591
     29 N         143.4008  135.1352  156.9867 N.ar    1  UNL1       -0.2351
     30 C         144.7111  133.1008  157.9321 C.3     1  UNL1        0.0629
     31 C         144.9067  131.6174  158.0387 C.3     1  UNL1        0.0787
     32 N         143.9876  130.6851  157.3064 N.3     1  UNL1       -0.2673
     33 C         142.8729  131.2363  156.4675 C.3     1  UNL1        0.1004
     34 C         144.1833  129.2018  157.4130 C.3     1  UNL1        0.0899
     35 C         145.0385  128.6348  158.5071 C.3     1  UNL1        0.0897
     36 N         144.3999  128.0611  159.7372 N.3     1  UNL1       -0.2691
     37 C         145.2560  127.5324  160.8496 C.3     1  UNL1        0.0897
     38 C         142.9052  128.0162  159.8548 C.3     1  UNL1        0.0897
@<TRIPOS>BOND
     1     8     9    1
     2     9    10   ar
     3    10    11   ar
     4    11    12   ar
     5    12    13    1
     6    12    14   ar
     7    14    15   ar
     8    15     1    1
     9     1     2   ar
    10     2     3   ar
    11     3    22    1
    12    22    24    1
    13    24    25   ar
    14    25    26   ar
    15    26    27   ar
    16    27    28   ar
    17    28    29   ar
    18    28    30    1
    19    30    31    1
    20    31    32    1
    21    32    34    1
    22    34    35    1
    23    35    36    1
    24    36    37    1
    25    36    38    1
    26    32    33    1
    27     3     4   ar
    28     4     5   ar
    29     5     6   ar
    30     6     7    1
    31    15    16   ar
    32    16    17   ar
    33    17    18   ar
    34    18    19    1
    35    19    20    1
    36    19    21    1
    37    18     9   ar
    38    17    11   ar
    39     6     1   ar
    40    29    24   ar
    41    33    27    1
    42    22    23    1
