@<TRIPOS>MOLECULE
*****
 30 31 0 0 0
SMALL
GASTEIGER

@<TRIPOS>ATOM
      1 N         138.7276  138.8683  166.3634 N.pl3   1  UNL1       -0.2820
      2 H         138.1361  138.2561  166.8578 H       1  UNL1        0.1551
      3 C         140.7362  140.9763  169.0601 C.ar    1  UNL1        0.0529
      4 C         139.6049  140.2916  168.3520 C.ar    1  UNL1        0.0487
      5 C         139.8590  139.5530  167.0715 C.ar    1  UNL1        0.1345
      6 N         141.2444  139.4991  166.4989 N.ar    1  UNL1       -0.2290
      7 C         142.3756  140.1838  167.2070 C.ar    1  UNL1        0.1054
      8 C         142.1215  140.9224  168.4876 C.ar    1  UNL1        0.1037
      9 C         143.2529  141.6071  169.1956 C.3     1  UNL1        0.4212
     10 F         144.3842  142.2917  169.9037 F       1  UNL1       -0.1658
     11 F         143.3837  140.4339  170.1210 F       1  UNL1       -0.1658
     12 F         143.1221  142.7803  168.2702 F       1  UNL1       -0.1658
     13 C         140.0443  143.1492  170.3051 C.3     1  UNL1        0.1085
     14 N         140.4821  141.7149  170.3407 N.pl3   1  UNL1       -0.3312
     15 H         140.6026  141.2584  171.2045 H       1  UNL1        0.1469
     16 C         138.4977  139.1165  164.9020 C.ar    1  UNL1        0.1558
     17 C         138.7466  138.0218  163.9071 C.ar    1  UNL1        0.1342
     18 N         138.5167  138.2699  162.4458 N.ar    1  UNL1       -0.2263
     19 C         138.0377  139.6128  161.9794 C.ar    1  UNL1        0.2025
     20 C         137.7887  140.7073  162.9742 C.ar    1  UNL1        0.2543
     21 N         138.0187  140.4592  164.4356 N.ar    1  UNL1       -0.1931
     22 C         137.8077  139.8609  160.5180 C.1     1  UNL1        0.1246
     23 N         137.5777  140.1091  159.0567 N.1     1  UNL1       -0.1891
     24 O         137.3098  142.0502  162.5078 O.3     1  UNL1       -0.4610
     25 C         138.1056  143.2817  162.8239 C.3     1  UNL1        0.1836
     26 C         137.7522  144.1169  164.0187 C.3     1  UNL1        0.0488
     27 C         139.2550  143.6779  161.9453 C.3     1  UNL1        0.1163
     28 N         140.0668  144.8952  162.2758 N.3     1  UNL1       -0.2673
     29 C         139.6808  146.2301  161.7111 C.3     1  UNL1        0.0898
     30 C         141.2646  144.7774  163.1710 C.3     1  UNL1        0.0898
@<TRIPOS>BOND
     1    13    14    1
     2    14     3    1
     3     3     4   ar
     4     4     5   ar
     5     5     1    1
     6     1    16    1
     7    16    17   ar
     8    17    18   ar
     9    18    19   ar
    10    19    22    1
    11    22    23    3
    12    19    20   ar
    13    20    24    1
    14    24    25    1
    15    25    26    1
    16    25    27    1
    17    27    28    1
    18    28    29    1
    19    28    30    1
    20    20    21   ar
    21     5     6   ar
    22     6     7   ar
    23     7     8   ar
    24     8     9    1
    25     9    10    1
    26     9    11    1
    27     9    12    1
    28     8     3   ar
    29    21    16   ar
    30    14    15    1
    31     1     2    1
@<TRIPOS>MOLECULE
*****
 30 31 0 0 0
SMALL
GASTEIGER

@<TRIPOS>ATOM
      1 N         138.5829  139.1039  166.8800 N.pl3   1  UNL1       -0.2820
      2 H         138.0076  138.4788  167.3775 H       1  UNL1        0.1551
      3 C         141.7097  141.4478  167.5723 C.ar    1  UNL1        0.0529
      4 C         140.6867  140.6279  166.8434 C.ar    1  UNL1        0.0487
      5 C         139.6058  139.9239  167.6090 C.ar    1  UNL1        0.1345
      6 N         139.5479  140.0397  169.1033 N.ar    1  UNL1       -0.2290
      7 C         140.5709  140.8596  169.8322 C.ar    1  UNL1        0.1054
      8 C         141.6517  141.5637  169.0667 C.ar    1  UNL1        0.1037
      9 C         142.6747  142.3836  169.7956 C.3     1  UNL1        0.4212
     10 F         143.6977  143.2035  170.5245 F       1  UNL1       -0.1658
     11 F         143.6097  141.2107  169.8028 F       1  UNL1       -0.1658
     12 F         141.7398  143.5565  169.7884 F       1  UNL1       -0.1658
     13 C         143.3460  141.5373  165.5563 C.3     1  UNL1        0.1085
     14 N         142.7906  142.1519  166.8068 N.pl3   1  UNL1       -0.3312
     15 H         143.1354  143.0173  167.1251 H       1  UNL1        0.1469
     16 C         138.4364  139.2365  165.3931 C.ar    1  UNL1        0.1558
     17 C         138.8882  138.1248  164.4929 C.ar    1  UNL1        0.1342
     18 N         138.7417  138.2574  163.0060 N.ar    1  UNL1       -0.2263
     19 C         138.1435  139.5016  162.4192 C.ar    1  UNL1        0.2025
     20 C         137.6918  140.6131  163.3194 C.ar    1  UNL1        0.2543
     21 N         137.8382  140.4806  164.8063 N.ar    1  UNL1       -0.1931
     22 C         137.9971  139.6342  160.9323 C.1     1  UNL1        0.1246
     23 N         137.8506  139.7667  159.4453 N.1     1  UNL1       -0.1891
     24 O         137.0936  141.8573  162.7326 O.3     1  UNL1       -0.4610
     25 C         137.9645  143.0437  162.4429 C.3     1  UNL1        0.1836
     26 C         138.8485  143.0470  161.2311 C.3     1  UNL1        0.0488
     27 C         137.9515  144.2267  163.3650 C.3     1  UNL1        0.1163
     28 N         138.8548  144.2544  164.5622 N.3     1  UNL1       -0.2673
     29 C         140.1426  143.4855  164.5481 C.3     1  UNL1        0.0898
     30 C         138.4702  145.0511  165.7736 C.3     1  UNL1        0.0898
@<TRIPOS>BOND
     1    13    14    1
     2    14     3    1
     3     3     4   ar
     4     4     5   ar
     5     5     1    1
     6     1    16    1
     7    16    17   ar
     8    17    18   ar
     9    18    19   ar
    10    19    22    1
    11    22    23    3
    12    19    20   ar
    13    20    24    1
    14    24    25    1
    15    25    26    1
    16    25    27    1
    17    27    28    1
    18    28    29    1
    19    28    30    1
    20    20    21   ar
    21     5     6   ar
    22     6     7   ar
    23     7     8   ar
    24     8     9    1
    25     9    10    1
    26     9    11    1
    27     9    12    1
    28     8     3   ar
    29    21    16   ar
    30    14    15    1
    31     1     2    1
@<TRIPOS>MOLECULE
*****
 30 31 0 0 0
SMALL
GASTEIGER

@<TRIPOS>ATOM
      1 N         143.4067  138.6015  167.0079 N.pl3   1  UNL1       -0.2820
      2 H         143.9085  137.9132  167.5014 H       1  UNL1        0.1551
      3 C         141.1083  141.7501  167.7521 C.ar    1  UNL1        0.0529
      4 C         141.8664  140.6938  167.0042 C.ar    1  UNL1        0.0487
      5 C         142.6485  139.6579  167.7559 C.ar    1  UNL1        0.1345
      6 N         142.6725  139.6782  169.2555 N.ar    1  UNL1       -0.2290
      7 C         141.9144  140.7345  170.0035 C.ar    1  UNL1        0.1054
      8 C         141.1323  141.7705  169.2517 C.ar    1  UNL1        0.1037
      9 C         140.3741  142.8268  169.9998 C.3     1  UNL1        0.4212
     10 F         139.6159  143.8830  170.7477 F       1  UNL1       -0.1658
     11 F         139.2029  141.8980  170.1241 F       1  UNL1       -0.1658
     12 F         141.5454  143.7556  169.8754 F       1  UNL1       -0.1658
     13 C         140.4416  142.8760  165.5076 C.3     1  UNL1        0.1085
     14 N         140.3262  142.7861  167.0004 N.pl3   1  UNL1       -0.3312
     15 H         139.7371  143.4071  167.4868 H       1  UNL1        0.1469
     16 C         143.4002  138.5941  165.5079 C.ar    1  UNL1        0.1558
     17 C         144.4873  139.2966  164.7497 C.ar    1  UNL1        0.1342
     18 N         144.4809  139.2891  163.2498 N.ar    1  UNL1       -0.2263
     19 C         143.3873  138.5791  162.5080 C.ar    1  UNL1        0.2025
     20 C         142.3004  137.8766  163.2662 C.ar    1  UNL1        0.2543
     21 N         142.3068  137.8841  164.7662 N.ar    1  UNL1       -0.1931
     22 C         143.3809  138.5716  161.0080 C.1     1  UNL1        0.1246
     23 N         143.3744  138.5641  159.5081 N.1     1  UNL1       -0.1891
     24 O         141.2068  137.1666  162.5244 O.3     1  UNL1       -0.4610
     25 C         139.9039  137.8621  162.2628 C.3     1  UNL1        0.1836
     26 C         139.6879  138.5879  160.9680 C.3     1  UNL1        0.0488
     27 C         138.8169  137.8318  163.2960 C.3     1  UNL1        0.1163
     28 N         138.6343  138.9937  164.2269 N.3     1  UNL1       -0.2673
     29 C         138.1373  140.3068  163.6989 C.3     1  UNL1        0.0898
     30 C         138.9489  138.8426  165.6858 C.3     1  UNL1        0.0898
@<TRIPOS>BOND
     1    13    14    1
     2    14     3    1
     3     3     4   ar
     4     4     5   ar
     5     5     1    1
     6     1    16    1
     7    16    17   ar
     8    17    18   ar
     9    18    19   ar
    10    19    22    1
    11    22    23    3
    12    19    20   ar
    13    20    24    1
    14    24    25    1
    15    25    26    1
    16    25    27    1
    17    27    28    1
    18    28    29    1
    19    28    30    1
    20    20    21   ar
    21     5     6   ar
    22     6     7   ar
    23     7     8   ar
    24     8     9    1
    25     9    10    1
    26     9    11    1
    27     9    12    1
    28     8     3   ar
    29    21    16   ar
    30    14    15    1
    31     1     2    1
@<TRIPOS>MOLECULE
*****
 30 31 0 0 0
SMALL
GASTEIGER

@<TRIPOS>ATOM
      1 N         138.5969  139.1347  167.5255 N.pl3   1  UNL1       -0.2820
      2 H         137.9810  138.5832  168.0600 H       1  UNL1        0.1551
      3 C         137.9672  140.0331  163.7115 C.ar    1  UNL1        0.0529
      4 C         137.9778  140.1330  165.2081 C.ar    1  UNL1        0.0487
      5 C         138.5864  139.0348  166.0288 C.ar    1  UNL1        0.1345
      6 N         139.1845  137.8368  165.3530 N.ar    1  UNL1       -0.2290
      7 C         139.1740  137.7369  163.8563 C.ar    1  UNL1        0.1054
      8 C         138.5654  138.8351  163.0356 C.ar    1  UNL1        0.1037
      9 C         138.5549  138.7351  161.5390 C.3     1  UNL1        0.4212
     10 F         138.5443  138.6352  160.0424 F       1  UNL1       -0.1658
     11 F         137.1857  138.1247  161.5894 F       1  UNL1       -0.1658
     12 F         139.9241  139.3456  161.4885 F       1  UNL1       -0.1658
     13 C         137.5583  142.5637  163.2886 C.3     1  UNL1        0.1085
     14 N         137.3586  141.1313  162.8908 N.pl3   1  UNL1       -0.3312
     15 H         136.8280  140.9119  162.0910 H       1  UNL1        0.1469
     16 C         139.5458  140.0751  168.2077 C.ar    1  UNL1        0.1558
     17 C         139.3113  140.4725  169.6350 C.ar    1  UNL1        0.1342
     18 N         140.2602  141.4129  170.3173 N.ar    1  UNL1       -0.2263
     19 C         141.4435  141.9557  169.5722 C.ar    1  UNL1        0.2025
     20 C         141.6779  141.5583  168.1450 C.ar    1  UNL1        0.2543
     21 N         140.7291  140.6179  167.4627 N.ar    1  UNL1       -0.1931
     22 C         142.3924  142.8961  170.2544 C.1     1  UNL1        0.1246
     23 N         143.3412  143.8364  170.9366 N.1     1  UNL1       -0.1891
     24 O         142.8613  142.1011  167.3999 O.3     1  UNL1       -0.4610
     25 C         142.9287  141.9770  165.9066 C.3     1  UNL1        0.1836
     26 C         142.3455  143.0517  165.0377 C.3     1  UNL1        0.0488
     27 C         143.5793  140.7784  165.2822 C.3     1  UNL1        0.1163
     28 N         144.3374  140.9213  163.9958 N.3     1  UNL1       -0.2673
     29 C         145.5956  141.7368  163.9534 C.3     1  UNL1        0.0898
     30 C         143.8372  140.2488  162.7517 C.3     1  UNL1        0.0898
@<TRIPOS>BOND
     1    13    14    1
     2    14     3    1
     3     3     4   ar
     4     4     5   ar
     5     5     1    1
     6     1    16    1
     7    16    17   ar
     8    17    18   ar
     9    18    19   ar
    10    19    22    1
    11    22    23    3
    12    19    20   ar
    13    20    24    1
    14    24    25    1
    15    25    26    1
    16    25    27    1
    17    27    28    1
    18    28    29    1
    19    28    30    1
    20    20    21   ar
    21     5     6   ar
    22     6     7   ar
    23     7     8   ar
    24     8     9    1
    25     9    10    1
    26     9    11    1
    27     9    12    1
    28     8     3   ar
    29    21    16   ar
    30    14    15    1
    31     1     2    1
@<TRIPOS>MOLECULE
*****
 30 31 0 0 0
SMALL
GASTEIGER

@<TRIPOS>ATOM
      1 N         139.7582  143.9008  164.9316 N.pl3   1  UNL1       -0.2820
      2 H         139.7235  144.5893  165.6344 H       1  UNL1        0.1551
      3 C         139.4796  140.4251  166.8269 C.ar    1  UNL1        0.0529
      4 C         139.8639  141.8400  166.5103 C.ar    1  UNL1        0.0487
      5 C         139.3738  142.4858  165.2482 C.ar    1  UNL1        0.1345
      6 N         138.4995  141.7166  164.3027 N.ar    1  UNL1       -0.2290
      7 C         138.1153  140.3017  164.6194 C.ar    1  UNL1        0.1054
      8 C         138.6053  139.6560  165.8815 C.ar    1  UNL1        0.1037
      9 C         138.2210  138.2410  166.1981 C.3     1  UNL1        0.4212
     10 F         137.8366  136.8261  166.5147 F       1  UNL1       -0.1658
     11 F         137.1527  138.7388  167.1259 F       1  UNL1       -0.1658
     12 F         139.2892  137.7432  165.2702 F       1  UNL1       -0.1658
     13 C         139.5310  140.3094  169.4219 C.3     1  UNL1        0.1085
     14 N         139.9696  139.7794  168.0890 N.pl3   1  UNL1       -0.3312
     15 H         140.5792  139.0077  168.0425 H       1  UNL1        0.1469
     16 C         140.1952  144.2667  163.5441 C.ar    1  UNL1        0.1558
     17 C         139.2486  144.9770  162.6224 C.ar    1  UNL1        0.1342
     18 N         139.6856  145.3429  161.2349 N.ar    1  UNL1       -0.2263
     19 C         141.0693  144.9985  160.7691 C.ar    1  UNL1        0.2025
     20 C         142.0158  144.2882  161.6908 C.ar    1  UNL1        0.2543
     21 N         141.5788  143.9223  163.0783 N.ar    1  UNL1       -0.1931
     22 C         141.5064  145.3644  159.3816 C.1     1  UNL1        0.1246
     23 N         141.9434  145.7303  157.9942 N.1     1  UNL1       -0.1891
     24 O         143.3995  143.9437  161.2250 O.3     1  UNL1       -0.4610
     25 C         143.6670  142.6118  160.5892 C.3     1  UNL1        0.1836
     26 C         144.4120  142.5372  159.2895 C.3     1  UNL1        0.0488
     27 C         143.1895  141.3543  161.2532 C.3     1  UNL1        0.1163
     28 N         144.1316  140.5472  162.0964 N.3     1  UNL1       -0.2673
     29 C         145.1845  141.2356  162.9133 C.3     1  UNL1        0.0898
     30 C         144.0207  139.0515  162.1227 C.3     1  UNL1        0.0898
@<TRIPOS>BOND
     1    13    14    1
     2    14     3    1
     3     3     4   ar
     4     4     5   ar
     5     5     1    1
     6     1    16    1
     7    16    17   ar
     8    17    18   ar
     9    18    19   ar
    10    19    22    1
    11    22    23    3
    12    19    20   ar
    13    20    24    1
    14    24    25    1
    15    25    26    1
    16    25    27    1
    17    27    28    1
    18    28    29    1
    19    28    30    1
    20    20    21   ar
    21     5     6   ar
    22     6     7   ar
    23     7     8   ar
    24     8     9    1
    25     9    10    1
    26     9    11    1
    27     9    12    1
    28     8     3   ar
    29    21    16   ar
    30    14    15    1
    31     1     2    1
@<TRIPOS>MOLECULE
*****
 30 31 0 0 0
SMALL
GASTEIGER

@<TRIPOS>ATOM
      1 N         143.5592  141.9970  164.9504 N.pl3   1  UNL1       -0.2820
      2 H         144.5283  141.8346  164.8897 H       1  UNL1        0.1551
      3 C         141.8950  141.9213  168.5525 C.ar    1  UNL1        0.0529
      4 C         142.6620  142.3991  167.3553 C.ar    1  UNL1        0.0487
      5 C         142.7921  141.5191  166.1476 C.ar    1  UNL1        0.1345
      6 N         142.1551  140.1611  166.1371 N.ar    1  UNL1       -0.2290
      7 C         141.3881  139.6832  167.3342 C.ar    1  UNL1        0.1054
      8 C         141.2580  140.5633  168.5419 C.ar    1  UNL1        0.1037
      9 C         140.4909  140.0854  169.7391 C.3     1  UNL1        0.4212
     10 F         139.7238  139.6075  170.9362 F       1  UNL1       -0.1658
     11 F         139.2634  140.7813  169.2304 F       1  UNL1       -0.1658
     12 F         141.7184  139.3895  170.2479 F       1  UNL1       -0.1658
     13 C         140.6412  143.7908  169.8496 C.3     1  UNL1        0.1085
     14 N         141.7649  142.8013  169.7602 N.pl3   1  UNL1       -0.3312
     15 H         142.4172  142.7295  170.4941 H       1  UNL1        0.1469
     16 C         142.8497  142.7224  163.8457 C.ar    1  UNL1        0.1558
     17 C         143.4988  143.9026  163.1854 C.ar    1  UNL1        0.1342
     18 N         142.7892  144.6279  162.0806 N.ar    1  UNL1       -0.2263
     19 C         141.4306  144.1732  161.6362 C.ar    1  UNL1        0.2025
     20 C         140.7816  142.9931  162.2966 C.ar    1  UNL1        0.2543
     21 N         141.4911  142.2677  163.4013 N.ar    1  UNL1       -0.1931
     22 C         140.7211  144.8985  160.5315 C.1     1  UNL1        0.1246
     23 N         140.0116  145.6239  159.4268 N.1     1  UNL1       -0.1891
     24 O         139.4230  142.5383  161.8522 O.3     1  UNL1       -0.4610
     25 C         138.2189  142.8378  162.6950 C.3     1  UNL1        0.1836
     26 C         137.8947  144.2555  163.0626 C.3     1  UNL1        0.0488
     27 C         137.3391  141.7198  163.1703 C.3     1  UNL1        0.1163
     28 N         137.9487  140.4254  163.6209 N.3     1  UNL1       -0.2673
     29 C         138.3128  140.2297  165.0628 C.3     1  UNL1        0.0898
     30 C         138.1941  139.3267  162.6296 C.3     1  UNL1        0.0898
@<TRIPOS>BOND
     1    13    14    1
     2    14     3    1
     3     3     4   ar
     4     4     5   ar
     5     5     1    1
     6     1    16    1
     7    16    17   ar
     8    17    18   ar
     9    18    19   ar
    10    19    22    1
    11    22    23    3
    12    19    20   ar
    13    20    24    1
    14    24    25    1
    15    25    26    1
    16    25    27    1
    17    27    28    1
    18    28    29    1
    19    28    30    1
    20    20    21   ar
    21     5     6   ar
    22     6     7   ar
    23     7     8   ar
    24     8     9    1
    25     9    10    1
    26     9    11    1
    27     9    12    1
    28     8     3   ar
    29    21    16   ar
    30    14    15    1
    31     1     2    1
@<TRIPOS>MOLECULE
*****
 30 31 0 0 0
SMALL
GASTEIGER

@<TRIPOS>ATOM
      1 N         139.1485  140.2126  165.6465 N.pl3   1  UNL1       -0.2820
      2 H         138.4980  139.5047  165.4347 H       1  UNL1        0.1551
      3 C         140.6156  140.2104  169.3341 C.ar    1  UNL1        0.0529
      4 C         139.6648  140.3842  168.1870 C.ar    1  UNL1        0.0487
      5 C         140.0994  140.0387  166.7936 C.ar    1  UNL1        0.1345
      6 N         141.4848  139.5194  166.5471 N.ar    1  UNL1       -0.2290
      7 C         142.4356  139.3455  167.6941 C.ar    1  UNL1        0.1054
      8 C         142.0010  139.6910  169.0876 C.ar    1  UNL1        0.1037
      9 C         142.9519  139.5171  170.2346 C.3     1  UNL1        0.4212
     10 F         143.9028  139.3431  171.3816 F       1  UNL1       -0.1658
     11 F         142.5233  138.0863  170.3730 F       1  UNL1       -0.1658
     12 F         143.3806  140.9478  170.0963 F       1  UNL1       -0.1658
     13 C         140.4386  141.9284  171.2749 C.3     1  UNL1        0.1085
     14 N         140.1810  140.5559  170.7275 N.pl3   1  UNL1       -0.3312
     15 H         139.7266  139.8818  171.2828 H       1  UNL1        0.1469
     16 C         139.1887  141.4653  164.8224 C.ar    1  UNL1        0.1558
     17 C         139.9568  142.6585  165.3084 C.ar    1  UNL1        0.1342
     18 N         139.9970  143.9112  164.4842 N.ar    1  UNL1       -0.2263
     19 C         139.2691  143.9706  163.1740 C.ar    1  UNL1        0.2025
     20 C         138.5010  142.7773  162.6880 C.ar    1  UNL1        0.2543
     21 N         138.4608  141.5247  163.5122 N.ar    1  UNL1       -0.1931
     22 C         139.3093  145.2232  162.3498 C.1     1  UNL1        0.1246
     23 N         139.3495  146.4758  161.5256 N.1     1  UNL1       -0.1891
     24 O         137.7731  142.8367  161.3777 O.3     1  UNL1       -0.4610
     25 C         138.3947  142.2461  160.1470 C.3     1  UNL1        0.1836
     26 C         139.1299  143.1276  159.1814 C.3     1  UNL1        0.0488
     27 C         138.2811  140.7741  159.8819 C.3     1  UNL1        0.1163
     28 N         139.1689  139.8100  160.6112 N.3     1  UNL1       -0.2673
     29 C         138.5875  138.5689  161.2209 C.3     1  UNL1        0.0898
     30 C         140.6384  140.0868  160.7309 C.3     1  UNL1        0.0898
@<TRIPOS>BOND
     1    13    14    1
     2    14     3    1
     3     3     4   ar
     4     4     5   ar
     5     5     1    1
     6     1    16    1
     7    16    17   ar
     8    17    18   ar
     9    18    19   ar
    10    19    22    1
    11    22    23    3
    12    19    20   ar
    13    20    24    1
    14    24    25    1
    15    25    26    1
    16    25    27    1
    17    27    28    1
    18    28    29    1
    19    28    30    1
    20    20    21   ar
    21     5     6   ar
    22     6     7   ar
    23     7     8   ar
    24     8     9    1
    25     9    10    1
    26     9    11    1
    27     9    12    1
    28     8     3   ar
    29    21    16   ar
    30    14    15    1
    31     1     2    1
@<TRIPOS>MOLECULE
*****
 30 31 0 0 0
SMALL
GASTEIGER

@<TRIPOS>ATOM
      1 N         138.8184  139.2396  166.5963 N.pl3   1  UNL1       -0.2820
      2 H         138.2026  138.6851  167.1279 H       1  UNL1        0.1551
      3 C         137.9287  140.7695  163.0441 C.ar    1  UNL1        0.0529
      4 C         138.1202  140.6466  164.5268 C.ar    1  UNL1        0.0487
      5 C         138.6270  139.3625  165.1136 C.ar    1  UNL1        0.1345
      6 N         138.9424  138.2015  164.2179 N.ar    1  UNL1       -0.2290
      7 C         138.7510  138.3244  162.7353 C.ar    1  UNL1        0.1054
      8 C         138.2442  139.6084  162.1484 C.ar    1  UNL1        0.1037
      9 C         138.0527  139.7314  160.6657 C.3     1  UNL1        0.4212
     10 F         137.8614  139.8543  159.1831 F       1  UNL1       -0.1658
     11 F         139.4230  140.3282  160.5383 F       1  UNL1       -0.1658
     12 F         136.6825  139.1345  160.7931 F       1  UNL1       -0.1658
     13 C         138.3825  143.1560  162.1229 C.3     1  UNL1        0.1085
     14 N         137.4219  142.0535  162.4573 N.pl3   1  UNL1       -0.3312
     15 H         136.4588  142.1727  162.2915 H       1  UNL1        0.1469
     16 C         139.9480  139.9617  167.2691 C.ar    1  UNL1        0.1558
     17 C         139.9465  140.1337  168.7593 C.ar    1  UNL1        0.1342
     18 N         141.0761  140.8557  169.4321 N.ar    1  UNL1       -0.2263
     19 C         142.2072  141.4058  168.6147 C.ar    1  UNL1        0.2025
     20 C         142.2087  141.2338  167.1246 C.ar    1  UNL1        0.2543
     21 N         141.0791  140.5118  166.4518 N.ar    1  UNL1       -0.1931
     22 C         143.3368  142.1279  169.2874 C.1     1  UNL1        0.1246
     23 N         144.4664  142.8499  169.9602 N.1     1  UNL1       -0.1891
     24 O         143.3398  141.7839  166.3072 O.3     1  UNL1       -0.4610
     25 C         143.4984  141.3726  164.8735 C.3     1  UNL1        0.1836
     26 C         144.1982  140.0899  164.5343 C.3     1  UNL1        0.0488
     27 C         142.9573  142.2439  163.7790 C.3     1  UNL1        0.1163
     28 N         142.4861  143.6335  164.0903 N.3     1  UNL1       -0.2673
     29 C         143.4242  144.7944  163.9418 C.3     1  UNL1        0.0898
     30 C         141.0767  143.8621  164.5502 C.3     1  UNL1        0.0898
@<TRIPOS>BOND
     1    13    14    1
     2    14     3    1
     3     3     4   ar
     4     4     5   ar
     5     5     1    1
     6     1    16    1
     7    16    17   ar
     8    17    18   ar
     9    18    19   ar
    10    19    22    1
    11    22    23    3
    12    19    20   ar
    13    20    24    1
    14    24    25    1
    15    25    26    1
    16    25    27    1
    17    27    28    1
    18    28    29    1
    19    28    30    1
    20    20    21   ar
    21     5     6   ar
    22     6     7   ar
    23     7     8   ar
    24     8     9    1
    25     9    10    1
    26     9    11    1
    27     9    12    1
    28     8     3   ar
    29    21    16   ar
    30    14    15    1
    31     1     2    1
@<TRIPOS>MOLECULE
*****
 30 31 0 0 0
SMALL
GASTEIGER

@<TRIPOS>ATOM
      1 N         137.6939  140.2816  164.1048 N.pl3   1  UNL1       -0.2820
      2 H         136.7281  140.2328  164.2897 H       1  UNL1        0.1551
      3 C         139.7382  140.6515  167.4863 C.ar    1  UNL1        0.0529
      4 C         138.8024  140.1071  166.4481 C.ar    1  UNL1        0.0487
      5 C         138.6297  140.8261  165.1430 C.ar    1  UNL1        0.1345
      6 N         139.3927  142.0897  164.8762 N.ar    1  UNL1       -0.2290
      7 C         140.3284  142.6341  165.9144 C.ar    1  UNL1        0.1054
      8 C         140.5012  141.9151  167.2194 C.ar    1  UNL1        0.1037
      9 C         141.4370  142.4596  168.2576 C.3     1  UNL1        0.4212
     10 F         142.3727  143.0041  169.2958 F       1  UNL1       -0.1658
     11 F         140.3442  143.3457  168.7778 F       1  UNL1       -0.1658
     12 F         142.5298  141.5735  167.7374 F       1  UNL1       -0.1658
     13 C         139.0653  140.3077  169.9720 C.3     1  UNL1        0.1085
     14 N         139.9109  139.9325  168.7913 N.pl3   1  UNL1       -0.3312
     15 H         140.5793  139.2142  168.8729 H       1  UNL1        0.1469
     16 C         138.2295  139.8115  162.7850 C.ar    1  UNL1        0.1558
     17 C         137.5504  140.2201  161.5114 C.ar    1  UNL1        0.1342
     18 N         138.0861  139.7500  160.1915 N.ar    1  UNL1       -0.2263
     19 C         139.3009  138.8712  160.1452 C.ar    1  UNL1        0.2025
     20 C         139.9800  138.4626  161.4188 C.ar    1  UNL1        0.2543
     21 N         139.4443  138.9328  162.7386 N.ar    1  UNL1       -0.1931
     22 C         139.8366  138.4011  158.8254 C.1     1  UNL1        0.1246
     23 N         140.3723  137.9310  157.5055 N.1     1  UNL1       -0.1891
     24 O         141.1948  137.5839  161.3724 O.3     1  UNL1       -0.4610
     25 C         142.5639  138.1927  161.4414 C.3     1  UNL1        0.1836
     26 C         143.2417  138.6582  160.1868 C.3     1  UNL1        0.0488
     27 C         143.2553  138.3361  162.7648 C.3     1  UNL1        0.1163
     28 N         142.6707  139.2225  163.8242 N.3     1  UNL1       -0.2673
     29 C         142.5792  140.7024  163.5974 C.3     1  UNL1        0.0898
     30 C         142.1776  138.6290  165.1106 C.3     1  UNL1        0.0898
@<TRIPOS>BOND
     1    13    14    1
     2    14     3    1
     3     3     4   ar
     4     4     5   ar
     5     5     1    1
     6     1    16    1
     7    16    17   ar
     8    17    18   ar
     9    18    19   ar
    10    19    22    1
    11    22    23    3
    12    19    20   ar
    13    20    24    1
    14    24    25    1
    15    25    26    1
    16    25    27    1
    17    27    28    1
    18    28    29    1
    19    28    30    1
    20    20    21   ar
    21     5     6   ar
    22     6     7   ar
    23     7     8   ar
    24     8     9    1
    25     9    10    1
    26     9    11    1
    27     9    12    1
    28     8     3   ar
    29    21    16   ar
    30    14    15    1
    31     1     2    1
