@<TRIPOS>MOLECULE
*****
 32 35 0 0 0
SMALL
GASTEIGER

@<TRIPOS>ATOM
      1 N         141.1206  140.2665  161.9335 N.3     1  UNL1       -0.2722
      2 C         141.8667  141.0300  162.9872 C.3     1  UNL1        0.0746
      3 C         141.4456  140.9325  164.4235 C.3     1  UNL1        0.0463
      4 C         140.2784  140.0716  164.8061 C.3     1  UNL1        0.1145
      5 C         139.5323  139.3081  163.7524 C.3     1  UNL1        0.0463
      6 C         139.9534  139.4056  162.3161 C.3     1  UNL1        0.0746
      7 C         141.0245  140.8351  165.8600 C.3     1  UNL1        0.1254
      8 N         140.6033  140.7376  167.2963 N.am    1  UNL1       -0.2543
      9 C         139.4361  139.8766  167.6789 C.2     1  UNL1        0.2566
     10 O         139.0150  139.7792  169.1153 O.2     1  UNL1       -0.2719
     11 C         138.6900  139.1132  166.6252 C.3     1  UNL1        0.1912
     12 C         137.5228  138.2522  167.0077 C.3     1  UNL1        0.0420
     13 O         139.1112  139.2106  165.1887 O.3     1  UNL1       -0.3500
     14 C         141.3494  141.5011  168.3501 C.ar    1  UNL1        0.0540
     15 C         140.7313  142.7168  168.9745 C.ar    1  UNL1        0.0149
     16 C         141.4773  143.4803  170.0283 C.ar    1  UNL1        0.0013
     17 C         142.8415  143.0280  170.4577 C.ar    1  UNL1        0.0001
     18 C         143.4596  141.8123  169.8333 C.ar    1  UNL1        0.0013
     19 C         142.7136  141.0488  168.7796 C.ar    1  UNL1        0.0149
     20 C         141.5417  140.3640  160.4970 C.3     1  UNL1        0.0768
     21 C         140.8735  141.3495  159.5848 C.3     1  UNL1        0.0437
     22 C         139.6114  144.4692  161.6883 C.ar    1  UNL1        0.0500
     23 C         140.2482  145.5972  160.9321 C.ar    1  UNL1        0.0147
     24 C         141.0935  145.3094  159.7269 C.ar    1  UNL1        0.0010
     25 C         141.3020  143.8936  159.2778 C.ar    1  UNL1       -0.0041
     26 C         140.6651  142.7655  160.0339 C.ar    1  UNL1       -0.0196
     27 C         139.8198  143.0533  161.2392 C.ar    1  UNL1        0.0105
     28 C         138.5262  144.9897  165.4700 C.3     1  UNL1        0.0949
     29 C         139.3715  144.7019  164.2647 C.2     1  UNL1        0.2266
     30 O         140.8224  144.3590  164.4308 O.2     1  UNL1       -0.2748
     31 N         138.7661  144.7570  162.8935 N.am    1  UNL1       -0.2839
     32 H         137.8138  144.9820  162.7846 H       1  UNL1        0.1549
@<TRIPOS>BOND
     1    28    29    1
     2    29    30    2
     3    29    31   am
     4    31    22    1
     5    22    23   ar
     6    23    24   ar
     7    24    25   ar
     8    25    26   ar
     9    26    21    1
    10    21    20    1
    11    20     1    1
    12     1     2    1
    13     2     3    1
    14     3     4    1
    15     4     5    1
    16     5     6    1
    17     4     7    1
    18     7     8    1
    19     8    14    1
    20    14    15   ar
    21    15    16   ar
    22    16    17   ar
    23    17    18   ar
    24    18    19   ar
    25     8     9   am
    26     9    10    2
    27     9    11    1
    28    11    12    1
    29    11    13    1
    30    26    27   ar
    31    27    22   ar
    32     6     1    1
    33    19    14   ar
    34    13     4    1
    35    31    32    1
@<TRIPOS>MOLECULE
*****
 32 35 0 0 0
SMALL
GASTEIGER

@<TRIPOS>ATOM
      1 N         139.3675  141.2021  161.9577 N.3     1  UNL1       -0.2722
      2 C         140.2497  141.9251  162.9318 C.3     1  UNL1        0.0746
      3 C         140.1864  141.5902  164.3925 C.3     1  UNL1        0.0463
      4 C         139.2409  140.5323  164.8792 C.3     1  UNL1        0.1145
      5 C         138.3587  139.8093  163.9051 C.3     1  UNL1        0.0463
      6 C         138.4219  140.1442  162.4444 C.3     1  UNL1        0.0746
      7 C         140.1231  141.2553  165.8534 C.3     1  UNL1        0.1254
      8 N         140.0599  140.9204  167.3141 N.am    1  UNL1       -0.2543
      9 C         139.1143  139.8625  167.8007 C.2     1  UNL1        0.2566
     10 O         139.0511  139.5276  169.2616 O.2     1  UNL1       -0.2719
     11 C         138.2321  139.1395  166.8267 C.3     1  UNL1        0.1912
     12 C         137.2866  138.0816  167.3133 C.3     1  UNL1        0.0420
     13 O         138.2954  139.4744  165.3658 O.3     1  UNL1       -0.3500
     14 C         140.9421  141.6434  168.2883 C.ar    1  UNL1        0.0540
     15 C         140.4191  142.8373  169.0306 C.ar    1  UNL1        0.0149
     16 C         141.3013  143.5603  170.0048 C.ar    1  UNL1        0.0013
     17 C         142.7064  143.0895  170.2365 C.ar    1  UNL1        0.0001
     18 C         143.2294  141.8956  169.4942 C.ar    1  UNL1        0.0013
     19 C         142.3473  141.1726  168.5200 C.ar    1  UNL1        0.0149
     20 C         139.4307  141.5370  160.4969 C.3     1  UNL1        0.0768
     21 C         140.1552  140.6273  159.5496 C.3     1  UNL1        0.0437
     22 C         143.7088  139.8630  161.1426 C.ar    1  UNL1        0.0500
     23 C         143.8008  138.3807  160.9325 C.ar    1  UNL1        0.0147
     24 C         142.6775  137.6472  160.2614 C.ar    1  UNL1        0.0010
     25 C         141.4624  138.3960  159.8004 C.ar    1  UNL1       -0.0041
     26 C         141.3704  139.8783  160.0106 C.ar    1  UNL1       -0.0196
     27 C         142.4936  140.6118  160.6817 C.ar    1  UNL1        0.0105
     28 C         145.8884  141.6212  163.9547 C.3     1  UNL1        0.0949
     29 C         144.7652  140.8878  163.2836 C.2     1  UNL1        0.2266
     30 O         143.5751  140.4455  164.0825 O.2     1  UNL1       -0.2748
     31 N         144.8320  140.5965  161.8137 N.am    1  UNL1       -0.2839
     32 H         145.6131  140.8867  161.2894 H       1  UNL1        0.1549
@<TRIPOS>BOND
     1    28    29    1
     2    29    30    2
     3    29    31   am
     4    31    22    1
     5    22    23   ar
     6    23    24   ar
     7    24    25   ar
     8    25    26   ar
     9    26    21    1
    10    21    20    1
    11    20     1    1
    12     1     2    1
    13     2     3    1
    14     3     4    1
    15     4     5    1
    16     5     6    1
    17     4     7    1
    18     7     8    1
    19     8    14    1
    20    14    15   ar
    21    15    16   ar
    22    16    17   ar
    23    17    18   ar
    24    18    19   ar
    25     8     9   am
    26     9    10    2
    27     9    11    1
    28    11    12    1
    29    11    13    1
    30    26    27   ar
    31    27    22   ar
    32     6     1    1
    33    19    14   ar
    34    13     4    1
    35    31    32    1
@<TRIPOS>MOLECULE
*****
 32 35 0 0 0
SMALL
GASTEIGER

@<TRIPOS>ATOM
      1 N         141.2039  138.3722  162.3323 N.3     1  UNL1       -0.2722
      2 C         141.9605  139.2907  163.2455 C.3     1  UNL1        0.0746
      3 C         141.4367  139.5793  164.6210 C.3     1  UNL1        0.0463
      4 C         140.1562  138.9494  165.0835 C.3     1  UNL1        0.1145
      5 C         139.3996  138.0310  164.1703 C.3     1  UNL1        0.0463
      6 C         139.9235  137.7424  162.7947 C.3     1  UNL1        0.0746
      7 C         140.9129  139.8679  165.9967 C.3     1  UNL1        0.1254
      8 N         140.3890  140.1566  167.3723 N.am    1  UNL1       -0.2543
      9 C         139.1086  139.5267  167.8347 C.2     1  UNL1        0.2566
     10 O         138.5848  139.8154  169.2104 O.2     1  UNL1       -0.2719
     11 C         138.3520  138.6083  166.9215 C.3     1  UNL1        0.1912
     12 C         137.0716  137.9784  167.3839 C.3     1  UNL1        0.0420
     13 O         138.8758  138.3196  165.5459 O.3     1  UNL1       -0.3500
     14 C         141.1457  141.0751  168.2856 C.ar    1  UNL1        0.0540
     15 C         142.5131  140.6926  168.7691 C.ar    1  UNL1        0.0149
     16 C         143.2697  141.6111  169.6823 C.ar    1  UNL1        0.0013
     17 C         142.6589  142.9119  170.1120 C.ar    1  UNL1        0.0001
     18 C         141.2914  143.2943  169.6284 C.ar    1  UNL1        0.0013
     19 C         140.5348  142.3759  168.7152 C.ar    1  UNL1        0.0149
     20 C         141.7277  138.0835  160.9566 C.3     1  UNL1        0.0768
     21 C         141.8349  139.1884  159.9478 C.3     1  UNL1        0.0437
     22 C         139.1624  142.1087  160.2301 C.ar    1  UNL1        0.0500
     23 C         138.2679  141.7875  159.0697 C.ar    1  UNL1        0.0147
     24 C         138.5624  140.5999  158.2020 C.ar    1  UNL1        0.0010
     25 C         139.7514  139.7336  158.4946 C.ar    1  UNL1       -0.0041
     26 C         140.6459  140.0548  159.6551 C.ar    1  UNL1       -0.0196
     27 C         140.3514  141.2423  160.5228 C.ar    1  UNL1        0.0105
     28 C         137.6242  144.3526  163.1195 C.3     1  UNL1        0.0949
     29 C         137.9186  143.1650  162.2518 C.2     1  UNL1        0.2266
     30 O         137.2638  141.8462  162.5380 O.2     1  UNL1       -0.2748
     31 N         138.8679  143.2963  161.0979 N.am    1  UNL1       -0.2839
     32 H         139.2977  144.1618  160.9100 H       1  UNL1        0.1549
@<TRIPOS>BOND
     1    28    29    1
     2    29    30    2
     3    29    31   am
     4    31    22    1
     5    22    23   ar
     6    23    24   ar
     7    24    25   ar
     8    25    26   ar
     9    26    21    1
    10    21    20    1
    11    20     1    1
    12     1     2    1
    13     2     3    1
    14     3     4    1
    15     4     5    1
    16     5     6    1
    17     4     7    1
    18     7     8    1
    19     8    14    1
    20    14    15   ar
    21    15    16   ar
    22    16    17   ar
    23    17    18   ar
    24    18    19   ar
    25     8     9   am
    26     9    10    2
    27     9    11    1
    28    11    12    1
    29    11    13    1
    30    26    27   ar
    31    27    22   ar
    32     6     1    1
    33    19    14   ar
    34    13     4    1
    35    31    32    1
@<TRIPOS>MOLECULE
*****
 32 35 0 0 0
SMALL
GASTEIGER

@<TRIPOS>ATOM
      1 N         138.9374  142.2178  162.0732 N.3     1  UNL1       -0.2722
      2 C         139.8294  142.8676  163.0891 C.3     1  UNL1        0.0746
      3 C         139.8966  142.3236  164.4853 C.3     1  UNL1        0.0463
      4 C         139.0718  141.1298  164.8657 C.3     1  UNL1        0.1145
      5 C         138.1799  140.4800  163.8498 C.3     1  UNL1        0.0463
      6 C         138.1126  141.0240  162.4536 C.3     1  UNL1        0.0746
      7 C         139.9639  141.7796  165.8817 C.3     1  UNL1        0.1254
      8 N         140.0311  141.2356  167.2779 N.am    1  UNL1       -0.2543
      9 C         139.2063  140.0418  167.6582 C.2     1  UNL1        0.2566
     10 O         139.2736  139.4978  169.0545 O.2     1  UNL1       -0.2719
     11 C         138.3144  139.3920  166.6423 C.3     1  UNL1        0.1912
     12 C         137.4896  138.1983  167.0227 C.3     1  UNL1        0.0420
     13 O         138.2471  139.9360  165.2460 O.3     1  UNL1       -0.3500
     14 C         140.9231  141.8854  168.2939 C.ar    1  UNL1        0.0540
     15 C         140.3972  142.9983  169.1512 C.ar    1  UNL1        0.0149
     16 C         141.2891  143.6480  170.1671 C.ar    1  UNL1        0.0013
     17 C         142.7070  143.1850  170.3257 C.ar    1  UNL1        0.0001
     18 C         143.2329  142.0722  169.4684 C.ar    1  UNL1        0.0013
     19 C         142.3410  141.4224  168.4525 C.ar    1  UNL1        0.0149
     20 C         138.8701  142.7618  160.6769 C.3     1  UNL1        0.0768
     21 C         139.8606  143.7938  160.2255 C.3     1  UNL1        0.0437
     22 C         143.7243  142.9191  160.4639 C.ar    1  UNL1        0.0500
     23 C         144.0204  142.5531  159.0397 C.ar    1  UNL1        0.0147
     24 C         142.9300  142.6007  158.0108 C.ar    1  UNL1        0.0010
     25 C         141.5434  143.0142  158.4061 C.ar    1  UNL1       -0.0041
     26 C         141.2473  143.3802  159.8302 C.ar    1  UNL1       -0.0196
     27 C         142.3377  143.3326  160.8591 C.ar    1  UNL1        0.0105
     28 C         145.9501  141.7013  163.5156 C.3     1  UNL1        0.0949
     29 C         144.8597  141.7489  162.4866 C.2     1  UNL1        0.2266
     30 O         143.8142  140.6738  162.4516 O.2     1  UNL1       -0.2748
     31 N         144.8147  142.8715  161.4928 N.am    1  UNL1       -0.2839
     32 H         145.5009  143.5771  161.5158 H       1  UNL1        0.1549
@<TRIPOS>BOND
     1    28    29    1
     2    29    30    2
     3    29    31   am
     4    31    22    1
     5    22    23   ar
     6    23    24   ar
     7    24    25   ar
     8    25    26   ar
     9    26    21    1
    10    21    20    1
    11    20     1    1
    12     1     2    1
    13     2     3    1
    14     3     4    1
    15     4     5    1
    16     5     6    1
    17     4     7    1
    18     7     8    1
    19     8    14    1
    20    14    15   ar
    21    15    16   ar
    22    16    17   ar
    23    17    18   ar
    24    18    19   ar
    25     8     9   am
    26     9    10    2
    27     9    11    1
    28    11    12    1
    29    11    13    1
    30    26    27   ar
    31    27    22   ar
    32     6     1    1
    33    19    14   ar
    34    13     4    1
    35    31    32    1
@<TRIPOS>MOLECULE
*****
 32 35 0 0 0
SMALL
GASTEIGER

@<TRIPOS>ATOM
      1 N         142.8668  138.3194  162.7797 N.3     1  UNL1       -0.2722
      2 C         143.4428  139.2585  163.7977 C.3     1  UNL1        0.0746
      3 C         142.6418  139.6351  165.0087 C.3     1  UNL1        0.0463
      4 C         141.2647  139.0725  165.2017 C.3     1  UNL1        0.1145
      5 C         140.6887  138.1334  164.1838 C.3     1  UNL1        0.0463
      6 C         141.4897  137.7569  162.9728 C.3     1  UNL1        0.0746
      7 C         141.8407  140.0117  166.2197 C.3     1  UNL1        0.1254
      8 N         141.0397  140.3882  167.4307 N.am    1  UNL1       -0.2543
      9 C         139.6626  139.8257  167.6238 C.2     1  UNL1        0.2566
     10 O         138.8616  140.2023  168.8348 O.2     1  UNL1       -0.2719
     11 C         139.0866  138.8866  166.6058 C.3     1  UNL1        0.1912
     12 C         137.7096  138.3240  166.7988 C.3     1  UNL1        0.0420
     13 O         139.8876  138.5100  165.3947 O.3     1  UNL1       -0.3500
     14 C         141.6157  141.3273  168.4487 C.ar    1  UNL1        0.0540
     15 C         142.9994  141.0994  168.9812 C.ar    1  UNL1        0.0149
     16 C         143.5754  142.0384  169.9991 C.ar    1  UNL1        0.0013
     17 C         142.7678  143.2054  170.4847 C.ar    1  UNL1        0.0001
     18 C         141.3841  143.4334  169.9523 C.ar    1  UNL1        0.0013
     19 C         140.8081  142.4943  168.9343 C.ar    1  UNL1        0.0149
     20 C         143.6678  137.9428  161.5687 C.3     1  UNL1        0.0768
     21 C         144.0969  138.9999  160.5949 C.3     1  UNL1        0.0437
     22 C         142.9099  142.7656  160.9954 C.ar    1  UNL1        0.0500
     23 C         141.6727  142.7646  160.1473 C.ar    1  UNL1        0.0147
     24 C         141.2436  141.5086  159.4484 C.ar    1  UNL1        0.0010
     25 C         142.0516  140.2538  159.5976 C.ar    1  UNL1       -0.0041
     26 C         143.2888  140.2548  160.4457 C.ar    1  UNL1       -0.0196
     27 C         143.7180  141.5108  161.1446 C.ar    1  UNL1        0.0105
     28 C         143.5603  145.4215  163.8717 C.3     1  UNL1        0.0949
     29 C         143.1311  144.1656  163.1728 C.2     1  UNL1        0.2266
     30 O         142.4940  143.0537  163.9525 O.2     1  UNL1       -0.2748
     31 N         143.3391  144.0216  161.6943 N.am    1  UNL1       -0.2839
     32 H         143.7572  144.7513  161.1826 H       1  UNL1        0.1549
@<TRIPOS>BOND
     1    28    29    1
     2    29    30    2
     3    29    31   am
     4    31    22    1
     5    22    23   ar
     6    23    24   ar
     7    24    25   ar
     8    25    26   ar
     9    26    21    1
    10    21    20    1
    11    20     1    1
    12     1     2    1
    13     2     3    1
    14     3     4    1
    15     4     5    1
    16     5     6    1
    17     4     7    1
    18     7     8    1
    19     8    14    1
    20    14    15   ar
    21    15    16   ar
    22    16    17   ar
    23    17    18   ar
    24    18    19   ar
    25     8     9   am
    26     9    10    2
    27     9    11    1
    28    11    12    1
    29    11    13    1
    30    26    27   ar
    31    27    22   ar
    32     6     1    1
    33    19    14   ar
    34    13     4    1
    35    31    32    1
@<TRIPOS>MOLECULE
*****
 32 35 0 0 0
SMALL
GASTEIGER

@<TRIPOS>ATOM
      1 N         139.8842  140.8170  161.8330 N.3     1  UNL1       -0.2722
      2 C         140.7251  141.5581  162.8298 C.3     1  UNL1        0.0746
      3 C         140.5490  141.3020  164.2972 C.3     1  UNL1        0.0463
      4 C         139.5319  140.3050  164.7678 C.3     1  UNL1        0.1145
      5 C         138.6910  139.5639  163.7710 C.3     1  UNL1        0.0463
      6 C         138.8672  139.8200  162.3036 C.3     1  UNL1        0.0746
      7 C         140.3728  141.0460  165.7647 C.3     1  UNL1        0.1254
      8 N         140.1967  140.7900  167.2322 N.am    1  UNL1       -0.2543
      9 C         139.1796  139.7930  167.7028 C.2     1  UNL1        0.2566
     10 O         139.0035  139.5370  169.1703 O.2     1  UNL1       -0.2719
     11 C         138.3387  139.0519  166.7060 C.3     1  UNL1        0.1912
     12 C         137.3217  138.0549  167.1766 C.3     1  UNL1        0.0420
     13 O         138.5149  139.3079  165.2384 O.3     1  UNL1       -0.3500
     14 C         141.0376  141.5311  168.2291 C.ar    1  UNL1        0.0540
     15 C         140.4837  142.7369  168.9285 C.ar    1  UNL1        0.0149
     16 C         141.3245  143.4779  169.9254 C.ar    1  UNL1        0.0013
     17 C         142.7193  143.0132  170.2228 C.ar    1  UNL1        0.0001
     18 C         143.2733  141.8074  169.5234 C.ar    1  UNL1        0.0013
     19 C         142.4324  141.0664  168.5265 C.ar    1  UNL1        0.0149
     20 C         140.0604  141.0730  160.3655 C.3     1  UNL1        0.0768
     21 C         138.9853  141.7780  159.5928 C.3     1  UNL1        0.0437
     22 C         136.7921  141.1456  156.3462 C.ar    1  UNL1        0.0500
     23 C         137.6577  140.1703  155.6050 C.ar    1  UNL1        0.0147
     24 C         138.9657  139.7308  156.1930 C.ar    1  UNL1        0.0010
     25 C         139.4083  140.2667  157.5223 C.ar    1  UNL1       -0.0041
     26 C         138.5427  141.2421  158.2635 C.ar    1  UNL1       -0.0196
     27 C         137.2347  141.6815  157.6754 C.ar    1  UNL1        0.0105
     28 C         132.9506  141.1786  155.3506 C.3     1  UNL1        0.0949
     29 C         134.2586  140.7391  155.9387 C.2     1  UNL1        0.2266
     30 O         134.3413  139.4536  156.7072 O.2     1  UNL1       -0.2748
     31 N         135.4840  141.5851  155.7582 N.am    1  UNL1       -0.2839
     32 H         135.4298  142.4289  155.2538 H       1  UNL1        0.1549
@<TRIPOS>BOND
     1    28    29    1
     2    29    30    2
     3    29    31   am
     4    31    22    1
     5    22    23   ar
     6    23    24   ar
     7    24    25   ar
     8    25    26   ar
     9    26    21    1
    10    21    20    1
    11    20     1    1
    12     1     2    1
    13     2     3    1
    14     3     4    1
    15     4     5    1
    16     5     6    1
    17     4     7    1
    18     7     8    1
    19     8    14    1
    20    14    15   ar
    21    15    16   ar
    22    16    17   ar
    23    17    18   ar
    24    18    19   ar
    25     8     9   am
    26     9    10    2
    27     9    11    1
    28    11    12    1
    29    11    13    1
    30    26    27   ar
    31    27    22   ar
    32     6     1    1
    33    19    14   ar
    34    13     4    1
    35    31    32    1
@<TRIPOS>MOLECULE
*****
 32 35 0 0 0
SMALL
GASTEIGER

@<TRIPOS>ATOM
      1 N         140.8930  139.9732  161.9915 N.3     1  UNL1       -0.2722
      2 C         141.6673  140.7625  163.0051 C.3     1  UNL1        0.0746
      3 C         141.2678  140.7234  164.4504 C.3     1  UNL1        0.0463
      4 C         140.0940  139.8952  164.8820 C.3     1  UNL1        0.1145
      5 C         139.3197  139.1059  163.8683 C.3     1  UNL1        0.0463
      6 C         139.7192  139.1450  162.4231 C.3     1  UNL1        0.0746
      7 C         140.8683  140.6844  165.8957 C.3     1  UNL1        0.1254
      8 N         140.4689  140.6454  167.3410 N.am    1  UNL1       -0.2543
      9 C         139.2951  139.8172  167.7726 C.2     1  UNL1        0.2566
     10 O         138.8957  139.7782  169.2180 O.2     1  UNL1       -0.2719
     11 C         138.5208  139.0279  166.7590 C.3     1  UNL1        0.1912
     12 C         137.3471  138.1997  167.1906 C.3     1  UNL1        0.0420
     13 O         138.9203  139.0669  165.3136 O.3     1  UNL1       -0.3500
     14 C         141.2432  141.4347  168.3548 C.ar    1  UNL1        0.0540
     15 C         140.6337  142.6540  168.9807 C.ar    1  UNL1        0.0149
     16 C         141.4079  143.4433  169.9944 C.ar    1  UNL1        0.0013
     17 C         142.7916  143.0132  170.3821 C.ar    1  UNL1        0.0001
     18 C         143.4011  141.7938  169.7562 C.ar    1  UNL1        0.0013
     19 C         142.6268  141.0046  168.7425 C.ar    1  UNL1        0.0149
     20 C         141.2924  140.0122  160.5461 C.3     1  UNL1        0.0768
     21 C         140.8453  138.9247  159.6148 C.3     1  UNL1        0.0437
     22 C         143.0247  137.2689  156.7410 C.ar    1  UNL1        0.0500
     23 C         142.9461  138.3267  155.6805 C.ar    1  UNL1        0.0147
     24 C         142.1673  139.5838  155.9314 C.ar    1  UNL1        0.0010
     25 C         141.4670  139.7832  157.2428 C.ar    1  UNL1       -0.0041
     26 C         141.5456  138.7254  158.3033 C.ar    1  UNL1       -0.0196
     27 C         142.3245  137.4682  158.0525 C.ar    1  UNL1        0.0105
     28 C         143.8796  133.5205  155.7566 C.3     1  UNL1        0.0949
     29 C         143.1007  134.7777  156.0074 C.2     1  UNL1        0.2266
     30 O         141.6189  134.8008  155.7755 O.2     1  UNL1       -0.2748
     31 N         143.8036  136.0117  156.4902 N.am    1  UNL1       -0.2839
     32 H         144.7761  135.9965  156.6424 H       1  UNL1        0.1549
@<TRIPOS>BOND
     1    28    29    1
     2    29    30    2
     3    29    31   am
     4    31    22    1
     5    22    23   ar
     6    23    24   ar
     7    24    25   ar
     8    25    26   ar
     9    26    21    1
    10    21    20    1
    11    20     1    1
    12     1     2    1
    13     2     3    1
    14     3     4    1
    15     4     5    1
    16     5     6    1
    17     4     7    1
    18     7     8    1
    19     8    14    1
    20    14    15   ar
    21    15    16   ar
    22    16    17   ar
    23    17    18   ar
    24    18    19   ar
    25     8     9   am
    26     9    10    2
    27     9    11    1
    28    11    12    1
    29    11    13    1
    30    26    27   ar
    31    27    22   ar
    32     6     1    1
    33    19    14   ar
    34    13     4    1
    35    31    32    1
@<TRIPOS>MOLECULE
*****
 32 35 0 0 0
SMALL
GASTEIGER

@<TRIPOS>ATOM
      1 N         141.6545  138.3468  162.4383 N.3     1  UNL1       -0.2722
      2 C         142.3743  139.2623  163.3837 C.3     1  UNL1        0.0746
      3 C         141.7771  139.5775  164.7231 C.3     1  UNL1        0.0463
      4 C         140.4601  138.9772  165.1170 C.3     1  UNL1        0.1145
      5 C         139.7403  138.0618  164.1716 C.3     1  UNL1        0.0463
      6 C         140.3375  137.7466  162.8323 C.3     1  UNL1        0.0746
      7 C         141.1799  139.8927  166.0625 C.3     1  UNL1        0.1254
      8 N         140.5827  140.2079  167.4019 N.am    1  UNL1       -0.2543
      9 C         139.2657  139.6077  167.7958 C.2     1  UNL1        0.2566
     10 O         138.6685  139.9229  169.1353 O.2     1  UNL1       -0.2719
     11 C         138.5459  138.6922  166.8504 C.3     1  UNL1        0.1912
     12 C         137.2289  138.0920  167.2444 C.3     1  UNL1        0.0420
     13 O         139.1431  138.3770  165.5110 O.3     1  UNL1       -0.3500
     14 C         141.3025  141.1234  168.3474 C.ar    1  UNL1        0.0540
     15 C         142.6704  140.7621  168.8456 C.ar    1  UNL1        0.0149
     16 C         143.3902  141.6775  169.7910 C.ar    1  UNL1        0.0013
     17 C         142.7421  142.9541  170.2383 C.ar    1  UNL1        0.0001
     18 C         141.3741  143.3154  169.7400 C.ar    1  UNL1        0.0013
     19 C         140.6543  142.4000  168.7946 C.ar    1  UNL1        0.0149
     20 C         142.2517  138.0316  161.0989 C.3     1  UNL1        0.0768
     21 C         142.1420  139.0213  159.9771 C.3     1  UNL1        0.0437
     22 C         138.6392  140.6788  159.1206 C.ar    1  UNL1        0.0500
     23 C         138.7351  141.9601  159.8946 C.ar    1  UNL1        0.0147
     24 C         139.9666  142.2618  160.6961 C.ar    1  UNL1        0.0010
     25 C         141.1022  141.2822  160.7236 C.ar    1  UNL1       -0.0041
     26 C         141.0063  140.0009  159.9496 C.ar    1  UNL1       -0.0196
     27 C         139.7748  139.6992  159.1481 C.ar    1  UNL1        0.0105
     28 C         135.9080  140.8225  156.2449 C.3     1  UNL1        0.0949
     29 C         137.1395  141.1242  157.0464 C.2     1  UNL1        0.2266
     30 O         138.1028  142.1730  156.5751 O.2     1  UNL1       -0.2748
     31 N         137.4077  140.3771  158.3191 N.am    1  UNL1       -0.2839
     32 H         136.7755  139.6887  158.6284 H       1  UNL1        0.1549
@<TRIPOS>BOND
     1    28    29    1
     2    29    30    2
     3    29    31   am
     4    31    22    1
     5    22    23   ar
     6    23    24   ar
     7    24    25   ar
     8    25    26   ar
     9    26    21    1
    10    21    20    1
    11    20     1    1
    12     1     2    1
    13     2     3    1
    14     3     4    1
    15     4     5    1
    16     5     6    1
    17     4     7    1
    18     7     8    1
    19     8    14    1
    20    14    15   ar
    21    15    16   ar
    22    16    17   ar
    23    17    18   ar
    24    18    19   ar
    25     8     9   am
    26     9    10    2
    27     9    11    1
    28    11    12    1
    29    11    13    1
    30    26    27   ar
    31    27    22   ar
    32     6     1    1
    33    19    14   ar
    34    13     4    1
    35    31    32    1
@<TRIPOS>MOLECULE
*****
 32 35 0 0 0
SMALL
GASTEIGER

@<TRIPOS>ATOM
      1 N         141.3178  143.9412  160.7110 N.3     1  UNL1       -0.2722
      2 C         141.7385  144.3628  162.0877 C.3     1  UNL1        0.0746
      3 C         141.4465  143.4797  163.2645 C.3     1  UNL1        0.0463
      4 C         140.7339  142.1750  163.0646 C.3     1  UNL1        0.1145
      5 C         140.3133  141.7534  161.6879 C.3     1  UNL1        0.0463
      6 C         140.6053  142.6365  160.5111 C.3     1  UNL1        0.0746
      7 C         141.1545  142.5966  164.4414 C.3     1  UNL1        0.1254
      8 N         140.8626  141.7135  165.6181 N.am    1  UNL1       -0.2543
      9 C         140.1500  140.4088  165.4183 C.2     1  UNL1        0.2566
     10 O         139.8581  139.5257  166.5951 O.2     1  UNL1       -0.2719
     11 C         139.7294  139.9872  164.0416 C.3     1  UNL1        0.1912
     12 C         139.0168  138.6825  163.8417 C.3     1  UNL1        0.0420
     13 O         140.0213  140.8703  162.8647 O.3     1  UNL1       -0.3500
     14 C         141.2832  142.1351  166.9949 C.ar    1  UNL1        0.0540
     15 C         142.6944  141.9087  167.4502 C.ar    1  UNL1        0.0149
     16 C         143.1150  142.3303  168.8269 C.ar    1  UNL1        0.0013
     17 C         142.1245  142.9782  169.7483 C.ar    1  UNL1        0.0001
     18 C         140.7133  143.2046  169.2929 C.ar    1  UNL1        0.0013
     19 C         140.2927  142.7831  167.9163 C.ar    1  UNL1        0.0149
     20 C         141.6098  144.8243  159.5342 C.3     1  UNL1        0.0768
     21 C         141.4590  144.2907  158.1404 C.3     1  UNL1        0.0437
     22 C         139.0670  146.9415  156.4078 C.ar    1  UNL1        0.0500
     23 C         138.4136  146.0909  155.3593 C.ar    1  UNL1        0.0147
     24 C         138.7752  144.6402  155.2378 C.ar    1  UNL1        0.0010
     25 C         139.7904  144.0402  156.1648 C.ar    1  UNL1       -0.0041
     26 C         140.4438  144.8908  157.2133 C.ar    1  UNL1       -0.0196
     27 C         140.0821  146.3414  157.3348 C.ar    1  UNL1        0.0105
     28 C         138.6539  150.7896  155.5296 C.3     1  UNL1        0.0949
     29 C         139.0156  149.3389  155.4081 C.2     1  UNL1        0.2266
     30 O         139.6876  148.8351  154.1652 O.2     1  UNL1       -0.2748
     31 N         138.7053  148.3922  156.5293 N.am    1  UNL1       -0.2839
     32 H         138.2643  148.7229  157.3450 H       1  UNL1        0.1549
@<TRIPOS>BOND
     1    28    29    1
     2    29    30    2
     3    29    31   am
     4    31    22    1
     5    22    23   ar
     6    23    24   ar
     7    24    25   ar
     8    25    26   ar
     9    26    21    1
    10    21    20    1
    11    20     1    1
    12     1     2    1
    13     2     3    1
    14     3     4    1
    15     4     5    1
    16     5     6    1
    17     4     7    1
    18     7     8    1
    19     8    14    1
    20    14    15   ar
    21    15    16   ar
    22    16    17   ar
    23    17    18   ar
    24    18    19   ar
    25     8     9   am
    26     9    10    2
    27     9    11    1
    28    11    12    1
    29    11    13    1
    30    26    27   ar
    31    27    22   ar
    32     6     1    1
    33    19    14   ar
    34    13     4    1
    35    31    32    1
