@<TRIPOS>MOLECULE
*****
 30 32 0 0 0
SMALL
GASTEIGER

@<TRIPOS>ATOM
      1 N         139.1120  139.8865  166.7972 N.3     1  UNL1       -0.2715
      2 C         139.3016  140.9160  165.7229 C.3     1  UNL1        0.0610
      3 C         140.6345  141.5815  165.5487 C.3     1  UNL1        0.0375
      4 C         140.8241  142.6110  164.4743 C.3     1  UNL1        0.0950
      5 N         139.6808  142.9750  163.5742 N.pl3   1  UNL1       -0.2785
      6 C         138.3478  142.3096  163.7484 C.3     1  UNL1        0.0950
      7 C         138.1582  141.2800  164.8227 C.3     1  UNL1        0.0375
      8 C         139.8704  144.0045  162.4999 C.ar    1  UNL1        0.2163
      9 N         141.0062  144.0590  161.5215 N.ar    1  UNL1       -0.1804
     10 C         140.7952  145.2485  160.6323 C.ar    1  UNL1        0.2331
     11 N         141.6928  145.6813  159.5111 N.pl3   1  UNL1       -0.3262
     12 N         139.5292  145.9292  161.0611 N.ar    1  UNL1       -0.1354
     13 N         138.9577  145.1603  162.2154 N.ar    1  UNL1       -0.2450
     14 H         142.5061  145.1663  159.3049 H       1  UNL1        0.1452
     15 H         141.4685  146.4803  158.9814 H       1  UNL1        0.1452
     16 H         138.1289  145.3764  162.7009 H       1  UNL1        0.1919
     17 C         139.9667  139.9221  168.0293 C.3     1  UNL1        0.1016
     18 C         140.0165  142.0952  169.4525 C.3     1  UNL1        0.0332
     19 C         139.5171  140.6981  169.2317 C.3     1  UNL1        0.1265
     20 O         138.5681  140.0770  170.2133 O.3     1  UNL1       -0.3830
     21 H         138.3810  140.7081  170.9259 H       1  UNL1        0.2104
     22 C         138.0677  138.8213  166.6393 C.3     1  UNL1        0.0768
     23 C         138.3770  137.5773  165.8604 C.3     1  UNL1        0.0437
     24 C         139.2725  137.6478  164.6590 C.ar    1  UNL1       -0.0207
     25 C         140.7522  137.4566  164.8143 C.ar    1  UNL1       -0.0034
     26 C         141.6476  137.5271  163.6130 C.ar    1  UNL1        0.0111
     27 C         141.0634  137.7888  162.2564 C.ar    1  UNL1        0.0577
     28 CL        141.9589  137.8593  161.0551 Cl      1  UNL1       -0.0822
     29 C         139.5838  137.9800  162.1012 C.ar    1  UNL1        0.0111
     30 C         138.6884  137.9095  163.3025 C.ar    1  UNL1       -0.0034
@<TRIPOS>BOND
     1    19    18    1
     2    19    20    1
     3    19    17    1
     4    17     1    1
     5     1    22    1
     6    22    23    1
     7    23    24    1
     8    24    25   ar
     9    25    26   ar
    10    26    27   ar
    11    27    28    1
    12    27    29   ar
    13    29    30   ar
    14     1     2    1
    15     2     3    1
    16     3     4    1
    17     4     5    1
    18     5     8    1
    19     8     9   ar
    20     9    10   ar
    21    10    11    1
    22    10    12   ar
    23    12    13   ar
    24     5     6    1
    25     6     7    1
    26    30    24   ar
    27     7     2    1
    28    13     8   ar
    29    20    21    1
    30    11    14    1
    31    11    15    1
    32    13    16    1
@<TRIPOS>MOLECULE
*****
 30 32 0 0 0
SMALL
GASTEIGER

@<TRIPOS>ATOM
      1 N         139.1979  139.5217  163.4636 N.3     1  UNL1       -0.2715
      2 C         139.6329  140.2829  164.6807 C.3     1  UNL1        0.0610
      3 C         140.5415  141.4679  164.5392 C.3     1  UNL1        0.0375
      4 C         140.9765  142.2291  165.7564 C.3     1  UNL1        0.0950
      5 N         140.5028  141.8053  167.1150 N.pl3   1  UNL1       -0.2785
      6 C         139.5941  140.6202  167.2565 C.3     1  UNL1        0.0950
      7 C         139.1591  139.8590  166.0394 C.3     1  UNL1        0.0375
      8 C         140.9377  142.5664  168.3321 C.ar    1  UNL1        0.2163
      9 N         142.2798  142.4754  168.9961 N.ar    1  UNL1       -0.1804
     10 C         142.2785  143.4050  170.1733 C.ar    1  UNL1        0.2331
     11 N         143.4196  143.6297  171.1206 N.pl3   1  UNL1       -0.3262
     12 N         140.9357  144.0705  170.2370 N.ar    1  UNL1       -0.1354
     13 N         140.1071  143.5522  169.0991 N.ar    1  UNL1       -0.2450
     14 H         144.2663  143.1430  170.9955 H       1  UNL1        0.1452
     15 H         143.3220  144.2637  171.8674 H       1  UNL1        0.1452
     16 H         139.1807  143.8133  168.8920 H       1  UNL1        0.1919
     17 C         138.7422  140.2604  162.2402 C.3     1  UNL1        0.1016
     18 C         138.0889  142.7126  161.6833 C.3     1  UNL1        0.0332
     19 C         137.7913  141.4130  162.3709 C.3     1  UNL1        0.1265
     20 O         136.5427  141.2663  163.1892 O.3     1  UNL1       -0.3830
     21 H         136.0437  142.0978  163.1696 H       1  UNL1        0.2104
     22 C         139.2188  138.0218  163.4698 C.3     1  UNL1        0.0768
     23 C         140.5234  137.2904  163.5840 C.3     1  UNL1        0.0437
     24 C         141.8034  138.0584  163.7316 C.ar    1  UNL1       -0.0207
     25 C         142.4197  138.2356  165.0875 C.ar    1  UNL1       -0.0034
     26 C         143.6997  139.0036  165.2350 C.ar    1  UNL1        0.0111
     27 C         144.3634  139.5943  164.0265 C.ar    1  UNL1        0.0577
     28 CL        145.6435  140.3622  164.1740 Cl      1  UNL1       -0.0822
     29 C         143.7472  139.4170  162.6705 C.ar    1  UNL1        0.0111
     30 C         142.4672  138.6491  162.5230 C.ar    1  UNL1       -0.0034
@<TRIPOS>BOND
     1    19    18    1
     2    19    20    1
     3    19    17    1
     4    17     1    1
     5     1    22    1
     6    22    23    1
     7    23    24    1
     8    24    25   ar
     9    25    26   ar
    10    26    27   ar
    11    27    28    1
    12    27    29   ar
    13    29    30   ar
    14     1     2    1
    15     2     3    1
    16     3     4    1
    17     4     5    1
    18     5     8    1
    19     8     9   ar
    20     9    10   ar
    21    10    11    1
    22    10    12   ar
    23    12    13   ar
    24     5     6    1
    25     6     7    1
    26    30    24   ar
    27     7     2    1
    28    13     8   ar
    29    20    21    1
    30    11    14    1
    31    11    15    1
    32    13    16    1
@<TRIPOS>MOLECULE
*****
 30 32 0 0 0
SMALL
GASTEIGER

@<TRIPOS>ATOM
      1 N         138.1709  139.7797  163.3507 N.3     1  UNL1       -0.2715
      2 C         138.6446  140.0099  164.7552 C.3     1  UNL1        0.0610
      3 C         139.6591  141.0777  165.0391 C.3     1  UNL1        0.0375
      4 C         140.1328  141.3079  166.4436 C.3     1  UNL1        0.0950
      5 N         139.5920  140.4702  167.5642 N.pl3   1  UNL1       -0.2785
      6 C         138.5774  139.4024  167.2804 C.3     1  UNL1        0.0950
      7 C         138.1038  139.1722  165.8759 C.3     1  UNL1        0.0375
      8 C         140.0657  140.7004  168.9687 C.ar    1  UNL1        0.2163
      9 N         141.1602  141.6367  169.3878 N.ar    1  UNL1       -0.1804
     10 C         141.2990  141.5496  170.8788 C.ar    1  UNL1        0.2331
     11 N         142.2751  142.3177  171.7198 N.pl3   1  UNL1       -0.3262
     12 N         140.2903  140.5596  171.3813 N.ar    1  UNL1       -0.1354
     13 N         139.5281  140.0348  170.2008 N.ar    1  UNL1       -0.2450
     14 H         142.9010  142.9482  171.2954 H       1  UNL1        0.1452
     15 H         142.2899  142.1915  172.6960 H       1  UNL1        0.1452
     16 H         138.8024  139.3701  170.2295 H       1  UNL1        0.1919
     17 C         137.3876  140.8431  162.6396 C.3     1  UNL1        0.1016
     18 C         139.4422  141.6604  161.2756 C.3     1  UNL1        0.0332
     19 C         138.1036  141.9314  161.8962 C.3     1  UNL1        0.1265
     20 O         137.4813  143.2906  161.7732 O.3     1  UNL1       -0.3830
     21 H         138.0703  143.8713  161.2665 H       1  UNL1        0.2104
     22 C         138.4806  138.4862  162.6572 C.3     1  UNL1        0.0768
     23 C         139.5022  137.5517  163.2343 C.3     1  UNL1        0.0437
     24 C         140.8948  138.0383  163.5064 C.ar    1  UNL1       -0.0207
     25 C         141.5162  137.8186  164.8538 C.ar    1  UNL1       -0.0034
     26 C         142.9087  138.3052  165.1258 C.ar    1  UNL1        0.0111
     27 C         143.6799  139.0114  164.0504 C.ar    1  UNL1        0.0577
     28 CL        145.0725  139.4980  164.3225 Cl      1  UNL1       -0.0822
     29 C         143.0586  139.2311  162.7030 C.ar    1  UNL1        0.0111
     30 C         141.6660  138.7445  162.4310 C.ar    1  UNL1       -0.0034
@<TRIPOS>BOND
     1    19    18    1
     2    19    20    1
     3    19    17    1
     4    17     1    1
     5     1    22    1
     6    22    23    1
     7    23    24    1
     8    24    25   ar
     9    25    26   ar
    10    26    27   ar
    11    27    28    1
    12    27    29   ar
    13    29    30   ar
    14     1     2    1
    15     2     3    1
    16     3     4    1
    17     4     5    1
    18     5     8    1
    19     8     9   ar
    20     9    10   ar
    21    10    11    1
    22    10    12   ar
    23    12    13   ar
    24     5     6    1
    25     6     7    1
    26    30    24   ar
    27     7     2    1
    28    13     8   ar
    29    20    21    1
    30    11    14    1
    31    11    15    1
    32    13    16    1
@<TRIPOS>MOLECULE
*****
 30 32 0 0 0
SMALL
GASTEIGER

@<TRIPOS>ATOM
      1 N         142.1759  141.6671  167.9786 N.3     1  UNL1       -0.2715
      2 C         141.7877  142.4090  166.7340 C.3     1  UNL1        0.0610
      3 C         142.8276  142.7470  165.7072 C.3     1  UNL1        0.0375
      4 C         142.4394  143.4888  164.4626 C.3     1  UNL1        0.0950
      5 N         141.0114  143.8927  164.2448 N.pl3   1  UNL1       -0.2785
      6 C         139.9714  143.5547  165.2716 C.3     1  UNL1        0.0950
      7 C         140.3595  142.8128  166.5162 C.3     1  UNL1        0.0375
      8 C         140.6232  144.6345  163.0003 C.ar    1  UNL1        0.2163
      9 N         141.1319  144.3610  161.6159 N.ar    1  UNL1       -0.1804
     10 C         140.4812  145.3376  160.6816 C.ar    1  UNL1        0.2331
     11 N         140.7026  145.4222  159.2004 N.pl3   1  UNL1       -0.3262
     12 N         139.5704  146.2147  161.4885 N.ar    1  UNL1       -0.1354
     13 N         139.6581  145.7802  162.9215 N.ar    1  UNL1       -0.2450
     14 H         141.3238  144.7988  158.7591 H       1  UNL1        0.1452
     15 H         140.2267  146.1012  158.6696 H       1  UNL1        0.1452
     16 H         139.1683  146.1772  163.6776 H       1  UNL1        0.1919
     17 C         142.7506  142.4116  169.1470 C.3     1  UNL1        0.1016
     18 C         140.6964  143.7568  169.9960 C.3     1  UNL1        0.0332
     19 C         141.8579  142.8482  170.2706 C.3     1  UNL1        0.1265
     20 O         142.1268  142.3763  171.6688 O.3     1  UNL1       -0.3830
     21 H         141.4617  142.7481  172.2691 H       1  UNL1        0.2104
     22 C         141.9893  140.1806  168.0546 C.3     1  UNL1        0.0768
     23 C         142.4598  139.3072  166.9297 C.3     1  UNL1        0.0437
     24 C         141.4972  138.8728  165.8643 C.ar    1  UNL1       -0.0207
     25 C         140.0439  139.2266  165.9771 C.ar    1  UNL1       -0.0034
     26 C         139.0814  138.7922  164.9118 C.ar    1  UNL1        0.0111
     27 C         139.5722  138.0040  163.7338 C.ar    1  UNL1        0.0577
     28 CL        138.6096  137.5695  162.6685 Cl      1  UNL1       -0.0822
     29 C         141.0255  137.6501  163.6210 C.ar    1  UNL1        0.0111
     30 C         141.9880  138.0845  164.6863 C.ar    1  UNL1       -0.0034
@<TRIPOS>BOND
     1    19    18    1
     2    19    20    1
     3    19    17    1
     4    17     1    1
     5     1    22    1
     6    22    23    1
     7    23    24    1
     8    24    25   ar
     9    25    26   ar
    10    26    27   ar
    11    27    28    1
    12    27    29   ar
    13    29    30   ar
    14     1     2    1
    15     2     3    1
    16     3     4    1
    17     4     5    1
    18     5     8    1
    19     8     9   ar
    20     9    10   ar
    21    10    11    1
    22    10    12   ar
    23    12    13   ar
    24     5     6    1
    25     6     7    1
    26    30    24   ar
    27     7     2    1
    28    13     8   ar
    29    20    21    1
    30    11    14    1
    31    11    15    1
    32    13    16    1
@<TRIPOS>MOLECULE
*****
 30 32 0 0 0
SMALL
GASTEIGER

@<TRIPOS>ATOM
      1 N         139.1274  138.7360  163.2008 N.3     1  UNL1       -0.2715
      2 C         139.4068  139.1545  164.6139 C.3     1  UNL1        0.0610
      3 C         140.6640  139.9053  164.9390 C.3     1  UNL1        0.0375
      4 C         140.9435  140.3238  166.3521 C.3     1  UNL1        0.0950
      5 N         139.9658  139.9916  167.4400 N.pl3   1  UNL1       -0.2785
      6 C         138.7085  139.2408  167.1149 C.3     1  UNL1        0.0950
      7 C         138.4290  138.8223  165.7018 C.3     1  UNL1        0.0375
      8 C         140.2452  140.4102  168.8531 C.ar    1  UNL1        0.2163
      9 N         141.3034  141.3781  169.2930 N.ar    1  UNL1       -0.1804
     10 C         141.2277  141.5004  170.7861 C.ar    1  UNL1        0.2331
     11 N         142.1032  142.3635  171.6455 N.pl3   1  UNL1       -0.3262
     12 N         140.1229  140.6081  171.2690 N.ar    1  UNL1       -0.1354
     13 N         139.5157  139.9343  170.0742 N.ar    1  UNL1       -0.2450
     14 H         142.8052  142.9173  171.2334 H       1  UNL1        0.1452
     15 H         141.9759  142.3763  172.6216 H       1  UNL1        0.1452
     16 H         138.7694  139.2924  170.0890 H       1  UNL1        0.1919
     17 C         137.9888  139.3558  162.4463 C.3     1  UNL1        0.1016
     18 C         138.7624  141.7707  161.8808 C.3     1  UNL1        0.0332
     19 C         137.7679  140.8382  162.5065 C.3     1  UNL1        0.1265
     20 O         136.5525  141.3881  163.1924 O.3     1  UNL1       -0.3830
     21 H         136.5628  142.3567  163.1412 H       1  UNL1        0.2104
     22 C         139.9866  137.6975  162.5424 C.3     1  UNL1        0.0768
     23 C         141.0195  138.1076  161.5350 C.3     1  UNL1        0.0437
     24 C         142.1713  138.9735  161.9517 C.ar    1  UNL1       -0.0207
     25 C         142.2470  140.3969  161.4846 C.ar    1  UNL1       -0.0034
     26 C         143.3987  141.2628  161.9013 C.ar    1  UNL1        0.0111
     27 C         144.4748  140.7053  162.7852 C.ar    1  UNL1        0.0577
     28 CL        145.6266  141.5712  163.2019 Cl      1  UNL1       -0.0822
     29 C         144.3992  139.2819  163.2523 C.ar    1  UNL1        0.0111
     30 C         143.2474  138.4160  162.8356 C.ar    1  UNL1       -0.0034
@<TRIPOS>BOND
     1    19    18    1
     2    19    20    1
     3    19    17    1
     4    17     1    1
     5     1    22    1
     6    22    23    1
     7    23    24    1
     8    24    25   ar
     9    25    26   ar
    10    26    27   ar
    11    27    28    1
    12    27    29   ar
    13    29    30   ar
    14     1     2    1
    15     2     3    1
    16     3     4    1
    17     4     5    1
    18     5     8    1
    19     8     9   ar
    20     9    10   ar
    21    10    11    1
    22    10    12   ar
    23    12    13   ar
    24     5     6    1
    25     6     7    1
    26    30    24   ar
    27     7     2    1
    28    13     8   ar
    29    20    21    1
    30    11    14    1
    31    11    15    1
    32    13    16    1
@<TRIPOS>MOLECULE
*****
 30 32 0 0 0
SMALL
GASTEIGER

@<TRIPOS>ATOM
      1 N         138.6202  139.2659  162.9986 N.3     1  UNL1       -0.2715
      2 C         138.9969  139.4484  164.4390 C.3     1  UNL1        0.0610
      3 C         138.0433  139.0378  165.5215 C.3     1  UNL1        0.0375
      4 C         138.4201  139.2203  166.9619 C.3     1  UNL1        0.0950
      5 N         139.7505  139.8135  167.3198 N.pl3   1  UNL1       -0.2785
      6 C         140.7043  140.2241  166.2372 C.3     1  UNL1        0.0950
      7 C         140.3275  140.0416  164.7968 C.3     1  UNL1        0.0375
      8 C         140.1273  139.9960  168.7601 C.ar    1  UNL1        0.2163
      9 N         141.5178  140.1830  169.2909 N.ar    1  UNL1       -0.1804
     10 C         141.4296  140.3262  170.7815 C.ar    1  UNL1        0.2331
     11 N         142.5838  140.5317  171.7172 N.pl3   1  UNL1       -0.3262
     12 N         139.9847  140.2276  171.1719 N.ar    1  UNL1       -0.1354
     13 N         139.1799  140.0236  169.9227 N.ar    1  UNL1       -0.2450
     14 H         143.5011  140.5835  171.3635 H       1  UNL1        0.1452
     15 H         142.4240  140.6149  172.6851 H       1  UNL1        0.1452
     16 H         138.2015  139.9250  169.8743 H       1  UNL1        0.1919
     17 C         139.1439  138.0893  162.2297 C.3     1  UNL1        0.1016
     18 C         141.3306  138.8984  161.0836 C.3     1  UNL1        0.0332
     19 C         140.6181  137.9431  161.9945 C.3     1  UNL1        0.1265
     20 O         141.3798  136.8417  162.6702 O.3     1  UNL1       -0.3830
     21 H         142.3137  136.8891  162.4125 H       1  UNL1        0.2104
     22 C         137.7196  140.2600  162.3272 C.3     1  UNL1        0.0768
     23 C         137.4514  141.5861  162.9748 C.3     1  UNL1        0.0437
     24 C         138.5676  142.5718  163.1560 C.ar    1  UNL1       -0.0207
     25 C         138.6075  143.4437  164.3759 C.ar    1  UNL1       -0.0034
     26 C         139.7237  144.4292  164.5570 C.ar    1  UNL1        0.0111
     27 C         140.7998  144.5429  163.5183 C.ar    1  UNL1        0.0577
     28 CL        141.9160  145.5285  163.6995 Cl      1  UNL1       -0.0822
     29 C         140.7598  143.6710  162.2984 C.ar    1  UNL1        0.0111
     30 C         139.6437  142.6854  162.1172 C.ar    1  UNL1       -0.0034
@<TRIPOS>BOND
     1    19    18    1
     2    19    20    1
     3    19    17    1
     4    17     1    1
     5     1    22    1
     6    22    23    1
     7    23    24    1
     8    24    25   ar
     9    25    26   ar
    10    26    27   ar
    11    27    28    1
    12    27    29   ar
    13    29    30   ar
    14     1     2    1
    15     2     3    1
    16     3     4    1
    17     4     5    1
    18     5     8    1
    19     8     9   ar
    20     9    10   ar
    21    10    11    1
    22    10    12   ar
    23    12    13   ar
    24     5     6    1
    25     6     7    1
    26    30    24   ar
    27     7     2    1
    28    13     8   ar
    29    20    21    1
    30    11    14    1
    31    11    15    1
    32    13    16    1
@<TRIPOS>MOLECULE
*****
 30 32 0 0 0
SMALL
GASTEIGER

@<TRIPOS>ATOM
      1 N         140.9285  142.0768  168.2437 N.3     1  UNL1       -0.2715
      2 C         140.8252  142.7164  166.8909 C.3     1  UNL1        0.0610
      3 C         139.5874  143.4743  166.5122 C.3     1  UNL1        0.0375
      4 C         139.4840  144.1139  165.1594 C.3     1  UNL1        0.0950
      5 N         140.6184  143.9957  164.1852 N.pl3   1  UNL1       -0.2785
      6 C         141.8563  143.2378  164.5639 C.3     1  UNL1        0.0950
      7 C         141.9597  142.5982  165.9167 C.3     1  UNL1        0.0375
      8 C         140.5150  144.6353  162.8323 C.ar    1  UNL1        0.2163
      9 N         141.5586  144.5940  161.7555 N.ar    1  UNL1       -0.1804
     10 C         141.0384  145.3617  160.5764 C.ar    1  UNL1        0.2331
     11 N         141.7570  145.5760  159.2774 N.pl3   1  UNL1       -0.3262
     12 N         139.6735  145.8774  160.9245 N.ar    1  UNL1       -0.1354
     13 N         139.3501  145.4285  162.3188 N.ar    1  UNL1       -0.2450
     14 H         142.6550  145.1955  159.1430 H       1  UNL1        0.1452
     15 H         141.3307  146.0972  158.5591 H       1  UNL1        0.1452
     16 H         138.5191  145.6207  162.8104 H       1  UNL1        0.1919
     17 C         141.2614  142.9117  169.4446 C.3     1  UNL1        0.1016
     18 C         143.7731  142.3250  169.7563 C.3     1  UNL1        0.0332
     19 C         142.4035  142.5222  170.3355 C.3     1  UNL1        0.1265
     20 O         142.1761  142.3299  171.8057 O.3     1  UNL1       -0.3830
     21 H         143.0112  142.0819  172.2323 H       1  UNL1        0.2104
     22 C         140.6990  140.6022  168.3957 C.3     1  UNL1        0.0768
     23 C         139.5158  139.9557  167.7384 C.3     1  UNL1        0.0437
     24 C         139.6247  139.4462  166.3318 C.ar    1  UNL1       -0.0207
     25 C         140.9378  138.9329  165.8196 C.ar    1  UNL1       -0.0034
     26 C         141.0467  138.4234  164.4131 C.ar    1  UNL1        0.0111
     27 C         139.8425  138.4272  163.5187 C.ar    1  UNL1        0.0577
     28 CL        139.9514  137.9176  162.1120 Cl      1  UNL1       -0.0822
     29 C         138.5294  138.9405  164.0308 C.ar    1  UNL1        0.0111
     30 C         138.4206  139.4500  165.4374 C.ar    1  UNL1       -0.0034
@<TRIPOS>BOND
     1    19    18    1
     2    19    20    1
     3    19    17    1
     4    17     1    1
     5     1    22    1
     6    22    23    1
     7    23    24    1
     8    24    25   ar
     9    25    26   ar
    10    26    27   ar
    11    27    28    1
    12    27    29   ar
    13    29    30   ar
    14     1     2    1
    15     2     3    1
    16     3     4    1
    17     4     5    1
    18     5     8    1
    19     8     9   ar
    20     9    10   ar
    21    10    11    1
    22    10    12   ar
    23    12    13   ar
    24     5     6    1
    25     6     7    1
    26    30    24   ar
    27     7     2    1
    28    13     8   ar
    29    20    21    1
    30    11    14    1
    31    11    15    1
    32    13    16    1
@<TRIPOS>MOLECULE
*****
 30 32 0 0 0
SMALL
GASTEIGER

@<TRIPOS>ATOM
      1 N         138.6724  143.6197  163.6457 N.3     1  UNL1       -0.2715
      2 C         139.1715  142.8929  164.8592 C.3     1  UNL1        0.0610
      3 C         138.8753  141.4329  165.0337 C.3     1  UNL1        0.0375
      4 C         139.3743  140.7061  166.2473 C.3     1  UNL1        0.0950
      5 N         140.1696  141.4394  167.2864 N.pl3   1  UNL1       -0.2785
      6 C         140.4658  142.8995  167.1120 C.3     1  UNL1        0.0950
      7 C         139.9668  143.6263  165.8984 C.3     1  UNL1        0.0375
      8 C         140.6687  140.7127  168.5000 C.ar    1  UNL1        0.2163
      9 N         142.0848  140.6906  168.9942 N.ar    1  UNL1       -0.1804
     10 C         142.1305  139.8446  170.2321 C.ar    1  UNL1        0.2331
     11 N         143.3500  139.5510  171.0546 N.pl3   1  UNL1       -0.3262
     12 N         140.7427  139.3439  170.5029 N.ar    1  UNL1       -0.1354
     13 N         139.8393  139.8804  169.4324 N.ar    1  UNL1       -0.2450
     14 H         144.2216  139.9277  170.7946 H       1  UNL1        0.1452
     15 H         143.2788  138.9816  171.8546 H       1  UNL1        0.1452
     16 H         138.8718  139.7152  169.3553 H       1  UNL1        0.1919
     17 C         137.7256  142.9404  162.7012 C.3     1  UNL1        0.1016
     18 C         138.5051  140.8941  161.3029 C.3     1  UNL1        0.0332
     19 C         138.2352  142.3656  161.4128 C.3     1  UNL1        0.1265
     20 O         138.4748  143.2622  160.2344 O.3     1  UNL1       -0.3830
     21 H         138.8008  142.7351  159.4882 H       1  UNL1        0.2104
     22 C         139.1202  145.0259  163.3766 C.3     1  UNL1        0.0768
     23 C         140.3167  145.2787  162.5082 C.3     1  UNL1        0.0437
     24 C         141.5991  144.5442  162.7657 C.ar    1  UNL1       -0.0207
     25 C         141.8527  143.2229  162.1026 C.ar    1  UNL1       -0.0034
     26 C         143.1350  142.4885  162.3602 C.ar    1  UNL1        0.0111
     27 C         144.1636  143.0754  163.2807 C.ar    1  UNL1        0.0577
     28 CL        145.4459  142.3409  163.5382 Cl      1  UNL1       -0.0822
     29 C         143.9100  144.3967  163.9438 C.ar    1  UNL1        0.0111
     30 C         142.6277  145.1311  163.6863 C.ar    1  UNL1       -0.0034
@<TRIPOS>BOND
     1    19    18    1
     2    19    20    1
     3    19    17    1
     4    17     1    1
     5     1    22    1
     6    22    23    1
     7    23    24    1
     8    24    25   ar
     9    25    26   ar
    10    26    27   ar
    11    27    28    1
    12    27    29   ar
    13    29    30   ar
    14     1     2    1
    15     2     3    1
    16     3     4    1
    17     4     5    1
    18     5     8    1
    19     8     9   ar
    20     9    10   ar
    21    10    11    1
    22    10    12   ar
    23    12    13   ar
    24     5     6    1
    25     6     7    1
    26    30    24   ar
    27     7     2    1
    28    13     8   ar
    29    20    21    1
    30    11    14    1
    31    11    15    1
    32    13    16    1
@<TRIPOS>MOLECULE
*****
 30 32 0 0 0
SMALL
GASTEIGER

@<TRIPOS>ATOM
      1 N         141.0511  140.5115  167.5202 N.3     1  UNL1       -0.2715
      2 C         140.9044  141.4324  166.3453 C.3     1  UNL1        0.0610
      3 C         142.0334  142.3415  165.9595 C.3     1  UNL1        0.0375
      4 C         141.8867  143.2625  164.7846 C.3     1  UNL1        0.0950
      5 N         140.6110  143.2744  163.9956 N.pl3   1  UNL1       -0.2785
      6 C         139.4820  142.3652  164.3814 C.3     1  UNL1        0.0950
      7 C         139.6287  141.4443  165.5563 C.3     1  UNL1        0.0375
      8 C         140.4643  144.1954  162.8207 C.ar    1  UNL1        0.2163
      9 N         141.4010  144.2908  161.6529 N.ar    1  UNL1       -0.1804
     10 C         140.8707  145.3371  160.7179 C.ar    1  UNL1        0.2331
     11 N         141.4952  145.7582  159.4207 N.pl3   1  UNL1       -0.3262
     12 N         139.6065  145.8882  161.3077 N.ar    1  UNL1       -0.1354
     13 N         139.3553  145.1826  162.6074 N.ar    1  UNL1       -0.2450
     14 H         142.3305  145.3352  159.1163 H       1  UNL1        0.1452
     15 H         141.0697  146.4575  158.8737 H       1  UNL1        0.1452
     16 H         138.5959  145.3398  163.2139 H       1  UNL1        0.1919
     17 C         139.8363  140.0596  168.2752 C.3     1  UNL1        0.1016
     18 C         139.9315  142.0477  169.9450 C.3     1  UNL1        0.0332
     19 C         139.5360  140.6361  169.6269 C.3     1  UNL1        0.1265
     20 O         138.8401  139.8012  170.6607 O.3     1  UNL1       -0.3830
     21 H         138.7236  140.3211  171.4713 H       1  UNL1        0.2104
     22 C         142.4127  140.0424  167.9400 C.3     1  UNL1        0.0768
     23 C         143.0197  138.8307  167.2971 C.3     1  UNL1        0.0437
     24 C         143.0382  138.7045  165.8025 C.ar    1  UNL1       -0.0207
     25 C         144.1708  139.2924  165.0142 C.ar    1  UNL1       -0.0034
     26 C         144.1893  139.1662  163.5196 C.ar    1  UNL1        0.0111
     27 C         143.0751  138.4520  162.8135 C.ar    1  UNL1        0.0577
     28 CL        143.0936  138.3258  161.3188 Cl      1  UNL1       -0.0822
     29 C         141.9426  137.8641  163.6018 C.ar    1  UNL1        0.0111
     30 C         141.9241  137.9903  165.0963 C.ar    1  UNL1       -0.0034
@<TRIPOS>BOND
     1    19    18    1
     2    19    20    1
     3    19    17    1
     4    17     1    1
     5     1    22    1
     6    22    23    1
     7    23    24    1
     8    24    25   ar
     9    25    26   ar
    10    26    27   ar
    11    27    28    1
    12    27    29   ar
    13    29    30   ar
    14     1     2    1
    15     2     3    1
    16     3     4    1
    17     4     5    1
    18     5     8    1
    19     8     9   ar
    20     9    10   ar
    21    10    11    1
    22    10    12   ar
    23    12    13   ar
    24     5     6    1
    25     6     7    1
    26    30    24   ar
    27     7     2    1
    28    13     8   ar
    29    20    21    1
    30    11    14    1
    31    11    15    1
    32    13    16    1
