@<TRIPOS>MOLECULE
*****
 40 45 0 0 0
SMALL
GASTEIGER

@<TRIPOS>ATOM
      1 C         146.5647  143.1091  155.0273 C.3     1  UNL1        0.0437
      2 C         145.5825  141.9910  155.2147 C.3     1  UNL1        0.1368
      3 C         145.8230  141.8817  153.7381 C.3     1  UNL1        0.0437
      4 C         144.6838  140.8350  154.8894 C.3     1  UNL1        0.0643
      5 C         143.8857  140.1765  155.9755 C.3     1  UNL1        0.1024
      6 C         143.9863  140.6742  157.3869 C.ar    1  UNL1        0.0488
      7 C         143.1883  140.0157  158.4730 C.ar    1  UNL1        0.0034
      8 C         143.2889  140.5134  159.8844 C.ar    1  UNL1        0.0177
      9 C         144.1876  141.6695  160.2098 C.ar    1  UNL1        0.0851
     10 N         144.9856  142.3279  159.1237 N.ar    1  UNL1       -0.2119
     11 C         144.8850  141.8302  157.7122 C.ar    1  UNL1        0.2219
     12 O         145.6831  142.4886  156.6262 O.3     1  UNL1       -0.4676
     13 C         144.2882  142.1671  161.6213 C.ar    1  UNL1        0.0284
     14 C         145.2700  141.5433  162.5683 C.ar    1  UNL1        0.0032
     15 C         145.3706  142.0410  163.9798 C.ar    1  UNL1        0.0115
     16 C         144.4893  143.1624  164.4442 C.ar    1  UNL1        0.0585
     17 CL        144.5899  143.6600  165.8556 Cl      1  UNL1       -0.0822
     18 C         143.5075  143.7862  163.4972 C.ar    1  UNL1        0.0228
     19 C         143.4069  143.2886  162.0858 C.ar    1  UNL1        0.0599
     20 CL        142.4250  143.9124  161.1387 Cl      1  UNL1       -0.0822
     21 C         142.4908  139.8549  160.9705 C.ar    1  UNL1        0.0015
     22 C         141.1423  140.3959  161.3433 C.ar    1  UNL1        0.0009
     23 C         140.3442  139.7375  162.4294 C.ar    1  UNL1        0.0114
     24 C         140.8947  138.5381  163.1426 C.ar    1  UNL1        0.0577
     25 CL        140.0966  137.8797  164.2287 Cl      1  UNL1       -0.0822
     26 C         142.2431  137.9972  162.7698 C.ar    1  UNL1        0.0114
     27 C         143.0412  138.6556  161.6837 C.ar    1  UNL1        0.0009
     28 N         142.9870  139.0204  155.6500 N.am    1  UNL1       -0.2972
     29 C         143.5751  137.6700  155.3662 C.2     1  UNL1        0.2656
     30 O         145.0619  137.4757  155.4078 O.2     1  UNL1       -0.2684
     31 H         142.0112  139.1480  155.6227 H       1  UNL1        0.1500
     32 C         142.6764  136.5139  155.0408 C.2     1  UNL1        0.1571
     33 N         141.5121  136.5412  154.0954 N.2     1  UNL1       -0.1436
     34 N         140.9003  135.1718  154.0739 N.2     1  UNL1       -0.1519
     35 C         141.6866  134.2982  155.0061 C.2     1  UNL1        0.0865
     36 C         141.5448  132.8546  155.3879 C.3     1  UNL1        0.0736
     37 C         142.5006  132.2405  156.3672 C.2     1  UNL1       -0.0197
     38 C         143.5984  133.0700  156.9648 C.2     1  UNL1       -0.0041
     39 C         143.7401  134.5136  156.5830 C.2     1  UNL1        0.0026
     40 C         142.7842  135.1277  155.6036 C.2     1  UNL1        0.0395
@<TRIPOS>BOND
     1     1     2    1
     2     2     3    1
     3     2     4    1
     4     4     5    1
     5     5    28    1
     6    28    29   am
     7    29    30    2
     8    29    32    1
     9    32    33    2
    10    33    34    1
    11    34    35    2
    12    35    36    1
    13    36    37    1
    14    37    38    2
    15    38    39    1
    16    39    40    2
    17     5     6    1
    18     6     7   ar
    19     7     8   ar
    20     8    21    1
    21    21    22   ar
    22    22    23   ar
    23    23    24   ar
    24    24    25    1
    25    24    26   ar
    26    26    27   ar
    27     8     9   ar
    28     9    13    1
    29    13    14   ar
    30    14    15   ar
    31    15    16   ar
    32    16    17    1
    33    16    18   ar
    34    18    19   ar
    35    19    20    1
    36     9    10   ar
    37    10    11   ar
    38    11    12    1
    39    12     2    1
    40    40    32    1
    41    11     6   ar
    42    40    35    1
    43    27    21   ar
    44    19    13   ar
    45    28    31    1
@<TRIPOS>MOLECULE
*****
 40 45 0 0 0
SMALL
GASTEIGER

@<TRIPOS>ATOM
      1 C         136.6735  143.0245  155.4008 C.3     1  UNL1        0.0437
      2 C         137.4583  141.8206  155.8307 C.3     1  UNL1        0.1368
      3 C         137.2279  141.4798  154.3882 C.3     1  UNL1        0.0437
      4 C         138.1631  140.4985  155.7596 C.3     1  UNL1        0.0643
      5 C         138.8258  139.9351  156.9817 C.3     1  UNL1        0.1024
      6 C         138.7837  140.6940  158.2749 C.ar    1  UNL1        0.0488
      7 C         139.4463  140.1306  159.4970 C.ar    1  UNL1        0.0034
      8 C         139.4042  140.8895  160.7902 C.ar    1  UNL1        0.0177
      9 C         138.6994  142.2117  160.8613 C.ar    1  UNL1        0.0851
     10 N         138.0367  142.7750  159.6392 N.ar    1  UNL1       -0.2119
     11 C         138.0789  142.0161  158.3460 C.ar    1  UNL1        0.2219
     12 O         137.4162  142.5795  157.1239 O.3     1  UNL1       -0.4676
     13 C         138.6573  142.9705  162.1545 C.ar    1  UNL1        0.0284
     14 C         137.6127  142.6459  163.1809 C.ar    1  UNL1        0.0032
     15 C         137.5707  143.4048  164.4741 C.ar    1  UNL1        0.0115
     16 C         138.5731  144.4883  164.7409 C.ar    1  UNL1        0.0585
     17 CL        138.5309  145.2471  166.0340 Cl      1  UNL1       -0.0822
     18 C         139.6176  144.8129  163.7144 C.ar    1  UNL1        0.0228
     19 C         139.6597  144.0541  162.4213 C.ar    1  UNL1        0.0599
     20 CL        140.7042  144.3788  161.3948 Cl      1  UNL1       -0.0822
     21 C         140.0669  140.3261  162.0123 C.ar    1  UNL1        0.0015
     22 C         139.3300  139.3525  162.8836 C.ar    1  UNL1        0.0009
     23 C         139.9926  138.7892  164.1057 C.ar    1  UNL1        0.0114
     24 C         141.3922  139.1995  164.4565 C.ar    1  UNL1        0.0577
     25 CL        142.0548  138.6361  165.6786 Cl      1  UNL1       -0.0822
     26 C         142.1290  140.1730  163.5852 C.ar    1  UNL1        0.0114
     27 C         141.4663  140.7364  162.3631 C.ar    1  UNL1        0.0009
     28 N         139.5306  138.6129  156.9106 N.am    1  UNL1       -0.2972
     29 C         140.9960  138.5601  156.5947 C.2     1  UNL1        0.2656
     30 O         141.7566  139.8296  156.3499 O.2     1  UNL1       -0.2684
     31 H         139.0314  137.7797  157.0713 H       1  UNL1        0.1500
     32 C         141.7008  137.2379  156.5236 C.2     1  UNL1        0.1571
     33 N         142.6509  136.6892  157.5464 N.2     1  UNL1       -0.1436
     34 N         143.1166  135.3444  157.0722 N.2     1  UNL1       -0.1519
     35 C         142.4542  135.0621  155.7562 C.2     1  UNL1        0.0865
     36 C         142.5347  133.8906  154.8229 C.3     1  UNL1        0.0736
     37 C         141.7403  133.8893  153.5506 C.2     1  UNL1       -0.0197
     38 C         140.8652  135.0596  153.2116 C.2     1  UNL1       -0.0041
     39 C         140.7847  136.2311  154.1449 C.2     1  UNL1        0.0026
     40 C         141.5792  136.2323  155.4172 C.2     1  UNL1        0.0395
@<TRIPOS>BOND
     1     1     2    1
     2     2     3    1
     3     2     4    1
     4     4     5    1
     5     5    28    1
     6    28    29   am
     7    29    30    2
     8    29    32    1
     9    32    33    2
    10    33    34    1
    11    34    35    2
    12    35    36    1
    13    36    37    1
    14    37    38    2
    15    38    39    1
    16    39    40    2
    17     5     6    1
    18     6     7   ar
    19     7     8   ar
    20     8    21    1
    21    21    22   ar
    22    22    23   ar
    23    23    24   ar
    24    24    25    1
    25    24    26   ar
    26    26    27   ar
    27     8     9   ar
    28     9    13    1
    29    13    14   ar
    30    14    15   ar
    31    15    16   ar
    32    16    17    1
    33    16    18   ar
    34    18    19   ar
    35    19    20    1
    36     9    10   ar
    37    10    11   ar
    38    11    12    1
    39    12     2    1
    40    40    32    1
    41    11     6   ar
    42    40    35    1
    43    27    21   ar
    44    19    13   ar
    45    28    31    1
@<TRIPOS>MOLECULE
*****
 40 45 0 0 0
SMALL
GASTEIGER

@<TRIPOS>ATOM
      1 C         137.6447  140.7023  153.8879 C.3     1  UNL1        0.0437
      2 C         138.3937  139.5749  154.5345 C.3     1  UNL1        0.1368
      3 C         138.3283  139.0690  153.1238 C.3     1  UNL1        0.0437
      4 C         139.1200  138.2718  154.6911 C.3     1  UNL1        0.0643
      5 C         139.6515  137.8661  156.0338 C.3     1  UNL1        0.1024
      6 C         139.4568  138.7634  157.2199 C.ar    1  UNL1        0.0488
      7 C         139.9883  138.3577  158.5626 C.ar    1  UNL1        0.0034
      8 C         139.7936  139.2550  159.7487 C.ar    1  UNL1        0.0177
      9 C         139.0672  140.5581  159.5921 C.ar    1  UNL1        0.0851
     10 N         138.5357  140.9638  158.2494 N.ar    1  UNL1       -0.2119
     11 C         138.7305  140.0664  157.0633 C.ar    1  UNL1        0.2219
     12 O         138.1989  140.4722  155.7205 O.3     1  UNL1       -0.4676
     13 C         138.8725  141.4554  160.7782 C.ar    1  UNL1        0.0284
     14 C         137.7327  141.2132  161.7228 C.ar    1  UNL1        0.0032
     15 C         137.5380  142.1106  162.9089 C.ar    1  UNL1        0.0115
     16 C         138.4830  143.2501  163.1504 C.ar    1  UNL1        0.0585
     17 CL        138.2882  144.1474  164.3365 Cl      1  UNL1       -0.0822
     18 C         139.6227  143.4924  162.2058 C.ar    1  UNL1        0.0228
     19 C         139.8175  142.5951  161.0197 C.ar    1  UNL1        0.0599
     20 CL        140.9572  142.8373  160.0751 Cl      1  UNL1       -0.0822
     21 C         140.3251  138.8493  161.0914 C.ar    1  UNL1        0.0015
     22 C         139.5096  137.9611  161.9837 C.ar    1  UNL1        0.0009
     23 C         140.0411  137.5554  163.3264 C.ar    1  UNL1        0.0114
     24 C         141.3882  138.0379  163.7768 C.ar    1  UNL1        0.0577
     25 CL        141.9197  137.6322  165.1195 Cl      1  UNL1       -0.0822
     26 C         142.2036  138.9260  162.8845 C.ar    1  UNL1        0.0114
     27 C         141.6721  139.3317  161.5418 C.ar    1  UNL1        0.0009
     28 N         140.3779  136.5630  156.1904 N.am    1  UNL1       -0.2972
     29 C         141.8744  136.5226  156.0973 C.2     1  UNL1        0.2656
     30 O         142.6447  137.7853  155.8476 O.2     1  UNL1       -0.2684
     31 H         139.8723  135.7343  156.3542 H       1  UNL1        0.1500
     32 C         142.6007  135.2195  156.2539 C.2     1  UNL1        0.1571
     33 N         143.4037  134.7957  157.4479 N.2     1  UNL1       -0.1436
     34 N         143.9509  133.4257  157.1759 N.2     1  UNL1       -0.1519
     35 C         143.4860  133.0030  155.8138 C.2     1  UNL1        0.0865
     36 C         143.7148  131.7518  155.0188 C.3     1  UNL1        0.0736
     37 C         143.1091  131.6092  153.6540 C.2     1  UNL1       -0.0197
     38 C         142.2747  132.7178  153.0841 C.2     1  UNL1       -0.0041
     39 C         142.0460  133.9690  153.8791 C.2     1  UNL1        0.0026
     40 C         142.6516  134.1116  155.2440 C.2     1  UNL1        0.0395
@<TRIPOS>BOND
     1     1     2    1
     2     2     3    1
     3     2     4    1
     4     4     5    1
     5     5    28    1
     6    28    29   am
     7    29    30    2
     8    29    32    1
     9    32    33    2
    10    33    34    1
    11    34    35    2
    12    35    36    1
    13    36    37    1
    14    37    38    2
    15    38    39    1
    16    39    40    2
    17     5     6    1
    18     6     7   ar
    19     7     8   ar
    20     8    21    1
    21    21    22   ar
    22    22    23   ar
    23    23    24   ar
    24    24    25    1
    25    24    26   ar
    26    26    27   ar
    27     8     9   ar
    28     9    13    1
    29    13    14   ar
    30    14    15   ar
    31    15    16   ar
    32    16    17    1
    33    16    18   ar
    34    18    19   ar
    35    19    20    1
    36     9    10   ar
    37    10    11   ar
    38    11    12    1
    39    12     2    1
    40    40    32    1
    41    11     6   ar
    42    40    35    1
    43    27    21   ar
    44    19    13   ar
    45    28    31    1
@<TRIPOS>MOLECULE
*****
 40 45 0 0 0
SMALL
GASTEIGER

@<TRIPOS>ATOM
      1 C         139.5917  145.9258  155.1871 C.3     1  UNL1        0.0437
      2 C         140.0652  144.5249  155.4386 C.3     1  UNL1        0.1368
      3 C         140.2324  144.5931  153.9494 C.3     1  UNL1        0.0437
      4 C         140.5967  143.1476  155.1729 C.3     1  UNL1        0.0643
      5 C         140.7966  142.1888  156.3089 C.3     1  UNL1        0.1024
      6 C         140.4649  142.6071  157.7106 C.ar    1  UNL1        0.0488
      7 C         140.6648  141.6482  158.8467 C.ar    1  UNL1        0.0034
      8 C         140.3331  142.0665  160.2484 C.ar    1  UNL1        0.0177
      9 C         139.8015  143.4438  160.5142 C.ar    1  UNL1        0.0851
     10 N         139.6016  144.4027  159.3782 N.ar    1  UNL1       -0.2119
     11 C         139.9333  143.9843  157.9763 C.ar    1  UNL1        0.2219
     12 O         139.7335  144.9432  156.8403 O.3     1  UNL1       -0.4676
     13 C         139.4698  143.8621  161.9159 C.ar    1  UNL1        0.0284
     14 C         138.0941  143.6237  162.4641 C.ar    1  UNL1        0.0032
     15 C         137.7624  144.0421  163.8660 C.ar    1  UNL1        0.0115
     16 C         138.8064  144.6989  164.7195 C.ar    1  UNL1        0.0585
     17 CL        138.4747  145.1172  166.1212 Cl      1  UNL1       -0.0822
     18 C         140.1822  144.9373  164.1713 C.ar    1  UNL1        0.0228
     19 C         140.5139  144.5190  162.7696 C.ar    1  UNL1        0.0599
     20 CL        141.8896  144.7574  162.2214 Cl      1  UNL1       -0.0822
     21 C         140.5330  141.1076  161.3845 C.ar    1  UNL1        0.0015
     22 C         139.4248  140.1803  161.7870 C.ar    1  UNL1        0.0009
     23 C         139.6246  139.2214  162.9230 C.ar    1  UNL1        0.0114
     24 C         140.9327  139.1899  163.6565 C.ar    1  UNL1        0.0577
     25 CL        141.1326  138.2310  164.7926 Cl      1  UNL1       -0.0822
     26 C         142.0408  140.1172  163.2540 C.ar    1  UNL1        0.0114
     27 C         141.8410  141.0761  162.1180 C.ar    1  UNL1        0.0009
     28 N         141.3282  140.8115  156.0431 N.am    1  UNL1       -0.2972
     29 C         142.8007  140.5436  156.1433 C.2     1  UNL1        0.2656
     30 O         143.7416  141.6530  156.5092 O.2     1  UNL1       -0.2684
     31 H         140.7107  140.0833  155.8030 H       1  UNL1        0.1500
     32 C         143.3323  139.1663  155.8775 C.2     1  UNL1        0.1571
     33 N         144.7766  138.7946  155.7171 N.2     1  UNL1       -0.1436
     34 N         144.8499  137.3175  155.4660 N.2     1  UNL1       -0.1519
     35 C         143.4508  136.7765  155.4711 C.2     1  UNL1        0.0865
     36 C         142.9097  135.3910  155.2771 C.3     1  UNL1        0.0736
     37 C         141.4308  135.1482  155.3374 C.2     1  UNL1       -0.0197
     38 C         140.4928  136.2909  155.5917 C.2     1  UNL1       -0.0041
     39 C         141.0339  137.6763  155.7858 C.2     1  UNL1        0.0026
     40 C         142.5129  137.9192  155.7255 C.2     1  UNL1        0.0395
@<TRIPOS>BOND
     1     1     2    1
     2     2     3    1
     3     2     4    1
     4     4     5    1
     5     5    28    1
     6    28    29   am
     7    29    30    2
     8    29    32    1
     9    32    33    2
    10    33    34    1
    11    34    35    2
    12    35    36    1
    13    36    37    1
    14    37    38    2
    15    38    39    1
    16    39    40    2
    17     5     6    1
    18     6     7   ar
    19     7     8   ar
    20     8    21    1
    21    21    22   ar
    22    22    23   ar
    23    23    24   ar
    24    24    25    1
    25    24    26   ar
    26    26    27   ar
    27     8     9   ar
    28     9    13    1
    29    13    14   ar
    30    14    15   ar
    31    15    16   ar
    32    16    17    1
    33    16    18   ar
    34    18    19   ar
    35    19    20    1
    36     9    10   ar
    37    10    11   ar
    38    11    12    1
    39    12     2    1
    40    40    32    1
    41    11     6   ar
    42    40    35    1
    43    27    21   ar
    44    19    13   ar
    45    28    31    1
@<TRIPOS>MOLECULE
*****
 40 45 0 0 0
SMALL
GASTEIGER

@<TRIPOS>ATOM
      1 C         144.4485  141.2178  154.8902 C.3     1  UNL1        0.0437
      2 C         144.0243  139.9064  155.4821 C.3     1  UNL1        0.1368
      3 C         144.6369  139.4273  154.1994 C.3     1  UNL1        0.0437
      4 C         143.8128  138.4286  155.6284 C.3     1  UNL1        0.0643
      5 C         143.1359  137.8854  156.8519 C.3     1  UNL1        0.1024
      6 C         142.6706  138.8199  157.9290 C.ar    1  UNL1        0.0488
      7 C         141.9938  138.2767  159.1524 C.ar    1  UNL1        0.0034
      8 C         141.5285  139.2112  160.2295 C.ar    1  UNL1        0.0177
      9 C         141.7400  140.6890  160.0831 C.ar    1  UNL1        0.0851
     10 N         142.4168  141.2323  158.8597 N.ar    1  UNL1       -0.2119
     11 C         142.8821  140.2977  157.7826 C.ar    1  UNL1        0.2219
     12 O         143.5589  140.8409  156.5591 O.3     1  UNL1       -0.4676
     13 C         141.2747  141.6235  161.1602 C.ar    1  UNL1        0.0284
     14 C         139.8939  142.2066  161.1022 C.ar    1  UNL1        0.0032
     15 C         139.4286  143.1412  162.1794 C.ar    1  UNL1        0.0115
     16 C         140.3440  143.4926  163.3144 C.ar    1  UNL1        0.0585
     17 CL        139.8787  144.4271  164.3915 Cl      1  UNL1       -0.0822
     18 C         141.7248  142.9094  163.3724 C.ar    1  UNL1        0.0228
     19 C         142.1901  141.9749  162.2953 C.ar    1  UNL1        0.0599
     20 CL        143.5709  141.3918  162.3533 Cl      1  UNL1       -0.0822
     21 C         140.8517  138.6679  161.4529 C.ar    1  UNL1        0.0015
     22 C         141.6688  138.2555  162.6414 C.ar    1  UNL1        0.0009
     23 C         140.9920  137.7123  163.8648 C.ar    1  UNL1        0.0114
     24 C         139.4980  137.5814  163.8998 C.ar    1  UNL1        0.0577
     25 CL        138.8212  137.0382  165.1232 Cl      1  UNL1       -0.0822
     26 C         138.6810  137.9938  162.7114 C.ar    1  UNL1        0.0114
     27 C         139.3578  138.5371  161.4879 C.ar    1  UNL1        0.0009
     28 N         142.9245  136.4076  156.9982 N.am    1  UNL1       -0.2972
     29 C         142.5659  135.5790  155.8004 C.2     1  UNL1        0.2656
     30 O         142.4188  136.2282  154.4562 O.2     1  UNL1       -0.2684
     31 H         143.0210  135.9815  157.8805 H       1  UNL1        0.1500
     32 C         142.3544  134.1011  155.9467 C.2     1  UNL1        0.1571
     33 N         141.1992  133.3173  155.3980 N.2     1  UNL1       -0.1436
     34 N         141.3918  131.8794  155.7796 N.2     1  UNL1       -0.1519
     35 C         142.6661  131.7747  156.5641 C.2     1  UNL1        0.0865
     36 C         143.3615  130.6065  157.1978 C.3     1  UNL1        0.0736
     37 C         144.6518  130.8113  157.9346 C.2     1  UNL1       -0.0197
     38 C         145.2468  132.1845  158.0379 C.2     1  UNL1       -0.0041
     39 C         144.5513  133.3527  157.4043 C.2     1  UNL1        0.0026
     40 C         143.2610  133.1478  156.6674 C.2     1  UNL1        0.0395
@<TRIPOS>BOND
     1     1     2    1
     2     2     3    1
     3     2     4    1
     4     4     5    1
     5     5    28    1
     6    28    29   am
     7    29    30    2
     8    29    32    1
     9    32    33    2
    10    33    34    1
    11    34    35    2
    12    35    36    1
    13    36    37    1
    14    37    38    2
    15    38    39    1
    16    39    40    2
    17     5     6    1
    18     6     7   ar
    19     7     8   ar
    20     8    21    1
    21    21    22   ar
    22    22    23   ar
    23    23    24   ar
    24    24    25    1
    25    24    26   ar
    26    26    27   ar
    27     8     9   ar
    28     9    13    1
    29    13    14   ar
    30    14    15   ar
    31    15    16   ar
    32    16    17    1
    33    16    18   ar
    34    18    19   ar
    35    19    20    1
    36     9    10   ar
    37    10    11   ar
    38    11    12    1
    39    12     2    1
    40    40    32    1
    41    11     6   ar
    42    40    35    1
    43    27    21   ar
    44    19    13   ar
    45    28    31    1
@<TRIPOS>MOLECULE
*****
 40 45 0 0 0
SMALL
GASTEIGER

@<TRIPOS>ATOM
      1 C         145.2373  142.5562  153.6719 C.3     1  UNL1        0.0437
      2 C         144.9497  141.2275  154.3058 C.3     1  UNL1        0.1368
      3 C         145.2970  140.7832  152.9158 C.3     1  UNL1        0.0437
      4 C         144.7828  139.7445  154.4570 C.3     1  UNL1        0.0643
      5 C         144.3684  139.1673  155.7780 C.3     1  UNL1        0.1024
      6 C         144.1210  140.0729  156.9478 C.ar    1  UNL1        0.0488
      7 C         143.7066  139.4956  158.2688 C.ar    1  UNL1        0.0034
      8 C         143.4592  140.4013  159.4386 C.ar    1  UNL1        0.0177
      9 C         143.6262  141.8844  159.2875 C.ar    1  UNL1        0.0851
     10 N         144.0405  142.4616  157.9665 N.ar    1  UNL1       -0.2119
     11 C         144.2879  141.5559  156.7966 C.ar    1  UNL1        0.2219
     12 O         144.7023  142.1332  155.4756 O.3     1  UNL1       -0.4676
     13 C         143.3787  142.7900  160.4573 C.ar    1  UNL1        0.0284
     14 C         144.4757  143.0559  161.4452 C.ar    1  UNL1        0.0032
     15 C         144.2283  143.9616  162.6150 C.ar    1  UNL1        0.0115
     16 C         142.8839  144.6014  162.7969 C.ar    1  UNL1        0.0585
     17 CL        142.6365  145.5071  163.9667 Cl      1  UNL1       -0.0822
     18 C         141.7869  144.3356  161.8090 C.ar    1  UNL1        0.0228
     19 C         142.0343  143.4299  160.6392 C.ar    1  UNL1        0.0599
     20 CL        140.9373  143.1641  159.6513 Cl      1  UNL1       -0.0822
     21 C         143.0448  139.8240  160.7596 C.ar    1  UNL1        0.0015
     22 C         144.0859  139.3657  161.7375 C.ar    1  UNL1        0.0009
     23 C         143.6715  138.7884  163.0585 C.ar    1  UNL1        0.0114
     24 C         142.2161  138.6694  163.4016 C.ar    1  UNL1        0.0577
     25 CL        141.8017  138.0922  164.7226 Cl      1  UNL1       -0.0822
     26 C         141.1751  139.1277  162.4237 C.ar    1  UNL1        0.0114
     27 C         141.5895  139.7050  161.1027 C.ar    1  UNL1        0.0009
     28 N         144.2014  137.6842  155.9292 N.am    1  UNL1       -0.2972
     29 C         142.8496  137.0595  155.7497 C.2     1  UNL1        0.2656
     30 O         141.6647  137.9178  155.4190 O.2     1  UNL1       -0.2684
     31 H         144.9791  137.1209  156.1462 H       1  UNL1        0.1500
     32 C         142.6827  135.5764  155.9008 C.2     1  UNL1        0.1571
     33 N         142.9754  134.7777  157.1363 N.2     1  UNL1       -0.1436
     34 N         142.6673  133.3394  156.8421 N.2     1  UNL1       -0.1519
     35 C         142.1843  133.2493  155.4248 C.2     1  UNL1        0.0865
     36 C         141.7370  132.0870  154.5889 C.3     1  UNL1        0.0736
     37 C         141.2993  132.3072  153.1712 C.2     1  UNL1       -0.0197
     38 C         141.3087  133.6898  152.5894 C.2     1  UNL1       -0.0041
     39 C         141.7560  134.8521  153.4254 C.2     1  UNL1        0.0026
     40 C         142.1938  134.6319  154.8431 C.2     1  UNL1        0.0395
@<TRIPOS>BOND
     1     1     2    1
     2     2     3    1
     3     2     4    1
     4     4     5    1
     5     5    28    1
     6    28    29   am
     7    29    30    2
     8    29    32    1
     9    32    33    2
    10    33    34    1
    11    34    35    2
    12    35    36    1
    13    36    37    1
    14    37    38    2
    15    38    39    1
    16    39    40    2
    17     5     6    1
    18     6     7   ar
    19     7     8   ar
    20     8    21    1
    21    21    22   ar
    22    22    23   ar
    23    23    24   ar
    24    24    25    1
    25    24    26   ar
    26    26    27   ar
    27     8     9   ar
    28     9    13    1
    29    13    14   ar
    30    14    15   ar
    31    15    16   ar
    32    16    17    1
    33    16    18   ar
    34    18    19   ar
    35    19    20    1
    36     9    10   ar
    37    10    11   ar
    38    11    12    1
    39    12     2    1
    40    40    32    1
    41    11     6   ar
    42    40    35    1
    43    27    21   ar
    44    19    13   ar
    45    28    31    1
@<TRIPOS>MOLECULE
*****
 40 45 0 0 0
SMALL
GASTEIGER

@<TRIPOS>ATOM
      1 C         139.8259  140.4276  154.7603 C.3     1  UNL1        0.0437
      2 C         140.6488  139.4072  155.4896 C.3     1  UNL1        0.1368
      3 C         140.7332  138.8614  154.0949 C.3     1  UNL1        0.0437
      4 C         141.5008  138.1973  155.7345 C.3     1  UNL1        0.0643
      5 C         141.9828  137.8875  157.1208 C.3     1  UNL1        0.1024
      6 C         141.6126  138.7876  158.2622 C.ar    1  UNL1        0.0488
      7 C         142.0945  138.4778  159.6485 C.ar    1  UNL1        0.0034
      8 C         141.7244  139.3780  160.7898 C.ar    1  UNL1        0.0177
      9 C         140.8722  140.5879  160.5449 C.ar    1  UNL1        0.0851
     10 N         140.3903  140.8977  159.1586 N.ar    1  UNL1       -0.2119
     11 C         140.7605  139.9975  158.0172 C.ar    1  UNL1        0.2219
     12 O         140.2786  140.3073  156.6309 O.3     1  UNL1       -0.4676
     13 C         140.5020  141.4880  161.6862 C.ar    1  UNL1        0.0284
     14 C         141.3854  142.6460  162.0452 C.ar    1  UNL1        0.0032
     15 C         141.0152  143.5461  163.1866 C.ar    1  UNL1        0.0115
     16 C         139.7616  143.2883  163.9690 C.ar    1  UNL1        0.0585
     17 CL        139.3915  144.1884  165.1104 Cl      1  UNL1       -0.0822
     18 C         138.8783  142.1303  163.6101 C.ar    1  UNL1        0.0228
     19 C         139.2485  141.2302  162.4687 C.ar    1  UNL1        0.0599
     20 CL        138.3651  140.0723  162.1098 Cl      1  UNL1       -0.0822
     21 C         142.2063  139.0682  162.1761 C.ar    1  UNL1        0.0015
     22 C         141.3774  138.2081  163.0836 C.ar    1  UNL1        0.0009
     23 C         141.8594  137.8984  164.4698 C.ar    1  UNL1        0.0114
     24 C         143.1701  138.4486  164.9487 C.ar    1  UNL1        0.0577
     25 CL        143.6520  138.1388  166.3349 Cl      1  UNL1       -0.0822
     26 C         143.9989  139.3086  164.0412 C.ar    1  UNL1        0.0114
     27 C         143.5170  139.6184  162.6549 C.ar    1  UNL1        0.0009
     28 N         142.8349  136.6775  157.3657 N.am    1  UNL1       -0.2972
     29 C         142.5091  135.3807  156.6860 C.2     1  UNL1        0.2656
     30 O         141.3312  135.2938  155.7614 O.2     1  UNL1       -0.2684
     31 H         143.6080  136.7346  157.9726 H       1  UNL1        0.1500
     32 C         143.3612  134.1707  156.9309 C.2     1  UNL1        0.1571
     33 N         144.1726  133.8986  158.1628 N.2     1  UNL1       -0.1436
     34 N         144.8645  132.5801  157.9802 N.2     1  UNL1       -0.1519
     35 C         144.4806  132.0376  156.6354 C.2     1  UNL1        0.0865
     36 C         144.8569  130.7754  155.9176 C.3     1  UNL1        0.0736
     37 C         144.3043  130.4963  154.5514 C.2     1  UNL1       -0.0197
     38 C         143.3752  131.4794  153.9029 C.2     1  UNL1       -0.0041
     39 C         142.9989  132.7415  154.6207 C.2     1  UNL1        0.0026
     40 C         143.5515  133.0206  155.9870 C.2     1  UNL1        0.0395
@<TRIPOS>BOND
     1     1     2    1
     2     2     3    1
     3     2     4    1
     4     4     5    1
     5     5    28    1
     6    28    29   am
     7    29    30    2
     8    29    32    1
     9    32    33    2
    10    33    34    1
    11    34    35    2
    12    35    36    1
    13    36    37    1
    14    37    38    2
    15    38    39    1
    16    39    40    2
    17     5     6    1
    18     6     7   ar
    19     7     8   ar
    20     8    21    1
    21    21    22   ar
    22    22    23   ar
    23    23    24   ar
    24    24    25    1
    25    24    26   ar
    26    26    27   ar
    27     8     9   ar
    28     9    13    1
    29    13    14   ar
    30    14    15   ar
    31    15    16   ar
    32    16    17    1
    33    16    18   ar
    34    18    19   ar
    35    19    20    1
    36     9    10   ar
    37    10    11   ar
    38    11    12    1
    39    12     2    1
    40    40    32    1
    41    11     6   ar
    42    40    35    1
    43    27    21   ar
    44    19    13   ar
    45    28    31    1
@<TRIPOS>MOLECULE
*****
 40 45 0 0 0
SMALL
GASTEIGER

@<TRIPOS>ATOM
      1 C         143.4305  135.7871  156.2628 C.3     1  UNL1        0.0437
      2 C         142.7155  137.1058  156.2628 C.3     1  UNL1        0.1368
      3 C         142.6879  136.7946  154.7957 C.3     1  UNL1        0.0437
      4 C         141.9910  138.3164  155.7534 C.3     1  UNL1        0.0643
      5 C         141.5424  139.3803  156.7110 C.3     1  UNL1        0.1024
      6 C         141.8184  139.2335  158.1780 C.ar    1  UNL1        0.0488
      7 C         141.3698  140.2974  159.1357 C.ar    1  UNL1        0.0034
      8 C         141.6457  140.1507  160.6027 C.ar    1  UNL1        0.0177
      9 C         142.3703  138.9400  161.1122 C.ar    1  UNL1        0.0851
     10 N         142.8189  137.8762  160.1546 N.ar    1  UNL1       -0.2119
     11 C         142.5429  138.0230  158.6875 C.ar    1  UNL1        0.2219
     12 O         142.9915  136.9591  157.7299 O.3     1  UNL1       -0.4676
     13 C         142.6462  138.7933  162.5793 C.ar    1  UNL1        0.0284
     14 C         143.8872  139.3915  163.1725 C.ar    1  UNL1        0.0032
     15 C         144.1632  139.2448  164.6397 C.ar    1  UNL1        0.0115
     16 C         143.1980  138.4998  165.5135 C.ar    1  UNL1        0.0585
     17 CL        143.4740  138.3531  166.9805 Cl      1  UNL1       -0.0822
     18 C         141.9570  137.9016  164.9202 C.ar    1  UNL1        0.0228
     19 C         141.6811  138.0483  163.4532 C.ar    1  UNL1        0.0599
     20 CL        140.4400  137.4501  162.8599 Cl      1  UNL1       -0.0822
     21 C         141.1972  141.2145  161.5603 C.ar    1  UNL1        0.0015
     22 C         142.1151  142.3503  161.9033 C.ar    1  UNL1        0.0009
     23 C         141.6665  143.4141  162.8609 C.ar    1  UNL1        0.0114
     24 C         140.3000  143.3422  163.4755 C.ar    1  UNL1        0.0577
     25 CL        139.8514  144.4060  164.4331 Cl      1  UNL1       -0.0822
     26 C         139.3822  142.2065  163.1325 C.ar    1  UNL1        0.0114
     27 C         139.8308  141.1426  162.1749 C.ar    1  UNL1        0.0009
     28 N         140.8179  140.5909  156.2015 N.am    1  UNL1       -0.2972
     29 C         139.3197  140.6440  156.2502 C.2     1  UNL1        0.2656
     30 O         138.5459  139.4865  156.8083 O.2     1  UNL1       -0.2684
     31 H         141.3257  141.3505  155.8351 H       1  UNL1        0.1500
     32 C         138.5951  141.8546  155.7406 C.2     1  UNL1        0.1571
     33 N         137.3140  141.8518  154.9604 N.2     1  UNL1       -0.1436
     34 N         136.9516  143.2760  154.6594 N.2     1  UNL1       -0.1519
     35 C         138.0087  144.1588  155.2537 C.2     1  UNL1        0.0865
     36 C         138.1777  145.6492  155.2728 C.3     1  UNL1        0.0736
     37 C         139.3622  146.2610  155.9600 C.2     1  UNL1       -0.0197
     38 C         140.3780  145.3825  156.6282 C.2     1  UNL1       -0.0041
     39 C         140.2091  143.8922  156.6092 C.2     1  UNL1        0.0026
     40 C         139.0245  143.2803  155.9219 C.2     1  UNL1        0.0395
@<TRIPOS>BOND
     1     1     2    1
     2     2     3    1
     3     2     4    1
     4     4     5    1
     5     5    28    1
     6    28    29   am
     7    29    30    2
     8    29    32    1
     9    32    33    2
    10    33    34    1
    11    34    35    2
    12    35    36    1
    13    36    37    1
    14    37    38    2
    15    38    39    1
    16    39    40    2
    17     5     6    1
    18     6     7   ar
    19     7     8   ar
    20     8    21    1
    21    21    22   ar
    22    22    23   ar
    23    23    24   ar
    24    24    25    1
    25    24    26   ar
    26    26    27   ar
    27     8     9   ar
    28     9    13    1
    29    13    14   ar
    30    14    15   ar
    31    15    16   ar
    32    16    17    1
    33    16    18   ar
    34    18    19   ar
    35    19    20    1
    36     9    10   ar
    37    10    11   ar
    38    11    12    1
    39    12     2    1
    40    40    32    1
    41    11     6   ar
    42    40    35    1
    43    27    21   ar
    44    19    13   ar
    45    28    31    1
@<TRIPOS>MOLECULE
*****
 40 45 0 0 0
SMALL
GASTEIGER

@<TRIPOS>ATOM
      1 C         142.8250  142.3836  154.4982 C.3     1  UNL1        0.0437
      2 C         142.5470  141.0219  155.0626 C.3     1  UNL1        0.1368
      3 C         143.0013  140.6445  153.6838 C.3     1  UNL1        0.0437
      4 C         142.4267  139.5293  155.1482 C.3     1  UNL1        0.0643
      5 C         141.9486  138.8868  156.4166 C.3     1  UNL1        0.1024
      6 C         141.5909  139.7371  157.5994 C.ar    1  UNL1        0.0488
      7 C         141.1128  139.0947  158.8677 C.ar    1  UNL1        0.0034
      8 C         140.7550  139.9449  160.0505 C.ar    1  UNL1        0.0177
      9 C         140.8753  141.4377  159.9650 C.ar    1  UNL1        0.0851
     10 N         141.3533  142.0801  158.6966 N.ar    1  UNL1       -0.2119
     11 C         141.7111  141.2298  157.5138 C.ar    1  UNL1        0.2219
     12 O         142.1892  141.8722  156.2454 O.3     1  UNL1       -0.4676
     13 C         140.5175  142.2880  161.1477 C.ar    1  UNL1        0.0284
     14 C         139.1027  142.7476  161.3405 C.ar    1  UNL1        0.0032
     15 C         138.7450  143.5979  162.5234 C.ar    1  UNL1        0.0115
     16 C         139.8020  143.9885  163.5134 C.ar    1  UNL1        0.0585
     17 CL        139.4442  144.8388  164.6961 Cl      1  UNL1       -0.0822
     18 C         141.2167  143.5289  163.3206 C.ar    1  UNL1        0.0228
     19 C         141.5745  142.6786  162.1378 C.ar    1  UNL1        0.0599
     20 CL        142.9893  142.2190  161.9450 Cl      1  UNL1       -0.0822
     21 C         140.2770  139.3025  161.3189 C.ar    1  UNL1        0.0015
     22 C         141.2516  138.9927  162.4163 C.ar    1  UNL1        0.0009
     23 C         140.7735  138.3503  163.6847 C.ar    1  UNL1        0.0114
     24 C         139.3209  138.0176  163.8556 C.ar    1  UNL1        0.0577
     25 CL        138.8428  137.3752  165.1240 Cl      1  UNL1       -0.0822
     26 C         138.3463  138.3274  162.7582 C.ar    1  UNL1        0.0114
     27 C         138.8244  138.9698  161.4899 C.ar    1  UNL1        0.0009
     28 N         141.8284  137.3941  156.5021 N.am    1  UNL1       -0.2972
     29 C         143.0367  136.5309  156.2906 C.2     1  UNL1        0.2656
     30 O         144.3654  137.1605  155.9934 O.2     1  UNL1       -0.2684
     31 H         140.9563  136.9808  156.6972 H       1  UNL1        0.1500
     32 C         142.9165  135.0382  156.3761 C.2     1  UNL1        0.1571
     33 N         143.2199  134.1968  157.5803 N.2     1  UNL1       -0.1436
     34 N         142.9627  132.7633  157.2210 N.2     1  UNL1       -0.1519
     35 C         142.5002  132.7189  155.7947 C.2     1  UNL1        0.0865
     36 C         142.1015  131.5798  154.9039 C.3     1  UNL1        0.0736
     37 C         141.6742  131.8466  153.4911 C.2     1  UNL1       -0.0197
     38 C         141.6456  133.2525  152.9689 C.2     1  UNL1       -0.0041
     39 C         142.0444  134.3916  153.8597 C.2     1  UNL1        0.0026
     40 C         142.4717  134.1248  155.2726 C.2     1  UNL1        0.0395
@<TRIPOS>BOND
     1     1     2    1
     2     2     3    1
     3     2     4    1
     4     4     5    1
     5     5    28    1
     6    28    29   am
     7    29    30    2
     8    29    32    1
     9    32    33    2
    10    33    34    1
    11    34    35    2
    12    35    36    1
    13    36    37    1
    14    37    38    2
    15    38    39    1
    16    39    40    2
    17     5     6    1
    18     6     7   ar
    19     7     8   ar
    20     8    21    1
    21    21    22   ar
    22    22    23   ar
    23    23    24   ar
    24    24    25    1
    25    24    26   ar
    26    26    27   ar
    27     8     9   ar
    28     9    13    1
    29    13    14   ar
    30    14    15   ar
    31    15    16   ar
    32    16    17    1
    33    16    18   ar
    34    18    19   ar
    35    19    20    1
    36     9    10   ar
    37    10    11   ar
    38    11    12    1
    39    12     2    1
    40    40    32    1
    41    11     6   ar
    42    40    35    1
    43    27    21   ar
    44    19    13   ar
    45    28    31    1
