@<TRIPOS>MOLECULE
*****
 32 37 0 0 0
SMALL
GASTEIGER

@<TRIPOS>ATOM
      1 C         142.5530  136.7060  157.6803 C.3     1  UNL1        0.1161
      2 C         143.2803  135.4097  157.4787 C.3     1  UNL1        0.0510
      3 C         142.9175  134.5172  156.3290 C.2     1  UNL1       -0.0044
      4 C         141.8274  134.9209  155.3811 C.2     1  UNL1        0.0689
      5 N         141.6908  133.8437  154.3461 N.2     1  UNL1       -0.2526
      6 C         142.6964  132.7743  154.6545 C.2     1  UNL1        0.0627
      7 C         143.0197  131.4753  153.9777 C.3     1  UNL1        0.0717
      8 C         144.1011  130.5926  154.5264 C.2     1  UNL1       -0.0198
      9 C         144.8593  131.0088  155.7519 C.2     1  UNL1       -0.0042
     10 C         144.5360  132.3078  156.4287 C.2     1  UNL1        0.0006
     11 C         143.4546  133.1905  155.8800 C.2     1  UNL1        0.0111
     12 C         141.1001  136.2172  155.5827 C.3     1  UNL1        0.0949
     13 N         141.4629  137.1098  156.7324 N.3     1  UNL1       -0.2887
     14 H         140.6173  137.2300  157.2900 H       1  UNL1        0.1239
     15 C         143.2484  138.4433  161.0809 C.ar    1  UNL1        0.0784
     16 C         143.6996  139.5008  160.1175 C.ar    1  UNL1        0.1172
     17 N         143.4941  138.9788  158.7264 N.ar    1  UNL1       -0.2282
     18 C         142.9158  137.5986  158.8301 C.ar    1  UNL1        0.1318
     19 N         142.7639  137.2676  160.2851 N.ar    1  UNL1       -0.3396
     20 H         142.4087  136.4265  160.6533 H       1  UNL1        0.1671
     21 C         144.4508  139.3288  164.7579 C.ar    1  UNL1        0.0207
     22 C         143.3331  138.7446  165.5700 C.ar    1  UNL1        0.0989
     23 N         142.1872  138.0600  164.8858 N.ar    1  UNL1       -0.2423
     24 C         142.1590  137.9596  163.3894 C.ar    1  UNL1        0.1003
     25 C         143.2767  138.5437  162.5773 C.ar    1  UNL1        0.0363
     26 C         144.4226  139.2283  163.2615 C.ar    1  UNL1        0.0046
     27 C         140.0100  136.6209  154.6347 C.3     1  UNL1        0.0252
     28 C         140.2028  136.4566  153.1564 C.3     1  UNL1        0.0339
     29 C         139.1126  136.8604  152.2084 C.3     1  UNL1        0.1422
     30 O         137.8297  137.4284  152.7389 O.3     1  UNL1       -0.3538
     31 C         137.6369  137.5926  154.2173 C.3     1  UNL1        0.1422
     32 C         138.7270  137.1889  155.1652 C.3     1  UNL1        0.0339
@<TRIPOS>BOND
     1    21    22   ar
     2    22    23   ar
     3    23    24   ar
     4    24    25   ar
     5    25    15    1
     6    15    16   ar
     7    16    17   ar
     8    17    18   ar
     9     1    18    1
    10     1     2    1
    11     2     3    1
    12     3     4    2
    13     4     5    1
    14     5     6    2
    15     6     7    1
    16     7     8    1
    17     8     9    2
    18     9    10    1
    19    10    11    2
    20     4    12    1
    21    12    27    1
    22    27    28    1
    23    28    29    1
    24    29    30    1
    25    30    31    1
    26    31    32    1
    27    12    13    1
    28    18    19   ar
    29    25    26   ar
    30    26    21   ar
    31    19    15   ar
    32    13     1    1
    33    11     3    1
    34    32    27    1
    35    11     6    1
    36    13    14    1
    37    19    20    1
@<TRIPOS>MOLECULE
*****
 32 37 0 0 0
SMALL
GASTEIGER

@<TRIPOS>ATOM
      1 C         142.0881  140.0094  160.6946 C.3     1  UNL1        0.1161
      2 C         142.5320  139.3770  161.9803 C.3     1  UNL1        0.0510
      3 C         142.2179  140.0388  163.2892 C.2     1  UNL1       -0.0044
      4 C         141.4599  141.3330  163.3125 C.2     1  UNL1        0.0689
      5 N         141.2969  141.7490  164.7443 N.2     1  UNL1       -0.2526
      6 C         141.9541  140.7120  165.6061 C.2     1  UNL1        0.0627
      7 C         142.1079  140.5936  167.0935 C.3     1  UNL1        0.0717
      8 C         142.8308  139.4183  167.6815 C.2     1  UNL1       -0.0198
      9 C         143.4000  138.3613  166.7822 C.2     1  UNL1       -0.0042
     10 C         143.2463  138.4797  165.2948 C.2     1  UNL1        0.0006
     11 C         142.5234  139.6550  164.7068 C.2     1  UNL1        0.0111
     12 C         141.0160  141.9654  162.0267 C.3     1  UNL1        0.0949
     13 N         141.3301  141.3036  160.7178 N.3     1  UNL1       -0.2887
     14 H         141.8733  141.9728  160.1724 H       1  UNL1        0.1239
     15 C         142.4995  137.7228  157.5853 C.ar    1  UNL1        0.0784
     16 C         143.2718  138.9354  157.1575 C.ar    1  UNL1        0.1172
     17 N         143.2117  139.9396  158.2701 N.ar    1  UNL1       -0.2282
     18 C         142.4023  139.3476  159.3856 C.ar    1  UNL1        0.1318
     19 N         141.9621  137.9775  158.9624 N.ar    1  UNL1       -0.3396
     20 H         141.4164  137.3548  159.4950 H       1  UNL1        0.1671
     21 C         143.0553  134.0789  156.1144 C.ar    1  UNL1        0.0207
     22 C         141.9001  133.9781  155.1630 C.ar    1  UNL1        0.0989
     23 N         140.9447  135.1254  155.0190 N.ar    1  UNL1       -0.2423
     24 C         141.1445  136.3736  155.8264 C.ar    1  UNL1        0.1003
     25 C         142.2997  136.4745  156.7779 C.ar    1  UNL1        0.0363
     26 C         143.2551  135.3271  156.9219 C.ar    1  UNL1        0.0046
     27 C         140.2579  143.2595  162.0499 C.3     1  UNL1        0.0252
     28 C         138.9316  143.3394  162.7457 C.3     1  UNL1        0.0339
     29 C         138.1735  144.6337  162.7688 C.3     1  UNL1        0.1422
     30 O         138.7420  145.8479  162.0963 O.3     1  UNL1       -0.3538
     31 C         140.0685  145.7680  161.4005 C.3     1  UNL1        0.1422
     32 C         140.8264  144.4739  161.3773 C.3     1  UNL1        0.0339
@<TRIPOS>BOND
     1    21    22   ar
     2    22    23   ar
     3    23    24   ar
     4    24    25   ar
     5    25    15    1
     6    15    16   ar
     7    16    17   ar
     8    17    18   ar
     9     1    18    1
    10     1     2    1
    11     2     3    1
    12     3     4    2
    13     4     5    1
    14     5     6    2
    15     6     7    1
    16     7     8    1
    17     8     9    2
    18     9    10    1
    19    10    11    2
    20     4    12    1
    21    12    27    1
    22    27    28    1
    23    28    29    1
    24    29    30    1
    25    30    31    1
    26    31    32    1
    27    12    13    1
    28    18    19   ar
    29    25    26   ar
    30    26    21   ar
    31    19    15   ar
    32    13     1    1
    33    11     3    1
    34    32    27    1
    35    11     6    1
    36    13    14    1
    37    19    20    1
@<TRIPOS>MOLECULE
*****
 32 37 0 0 0
SMALL
GASTEIGER

@<TRIPOS>ATOM
      1 C         139.3859  139.7808  157.6854 C.3     1  UNL1        0.1161
      2 C         139.0544  139.6878  159.1454 C.3     1  UNL1        0.0510
      3 C         138.7366  140.9305  159.9230 C.2     1  UNL1       -0.0044
      4 C         138.7504  142.2662  159.2406 C.2     1  UNL1        0.0689
      5 N         138.3981  143.3102  160.2584 N.2     1  UNL1       -0.2526
      6 C         138.1666  142.6197  161.5698 C.2     1  UNL1        0.0627
      7 C         137.7924  143.1403  162.9258 C.3     1  UNL1        0.0717
      8 C         137.6274  142.1900  164.0746 C.2     1  UNL1       -0.0198
      9 C         137.8366  140.7192  163.8673 C.2     1  UNL1       -0.0042
     10 C         138.2108  140.1987  162.5112 C.2     1  UNL1        0.0006
     11 C         138.3759  141.1489  161.3624 C.2     1  UNL1        0.0111
     12 C         139.0819  142.3592  157.7806 C.3     1  UNL1        0.0949
     13 N         139.3996  141.1165  157.0030 N.3     1  UNL1       -0.2887
     14 H         140.3361  141.2411  156.6186 H       1  UNL1        0.1239
     15 C         140.8068  136.5213  156.1290 C.ar    1  UNL1        0.0784
     16 C         139.5786  136.7299  155.2936 C.ar    1  UNL1        0.1172
     17 N         138.8968  137.9763  155.7749 N.ar    1  UNL1       -0.2282
     18 C         139.7037  138.5380  156.9078 C.ar    1  UNL1        0.1318
     19 N         140.8841  137.6388  157.1266 N.ar    1  UNL1       -0.3396
     20 H         141.5864  137.7607  157.8058 H       1  UNL1        0.1671
     21 C         142.5154  133.1734  154.8554 C.ar    1  UNL1        0.0207
     22 C         143.7441  133.1374  155.7150 C.ar    1  UNL1        0.0989
     23 N         143.9937  134.2294  156.7126 N.ar    1  UNL1       -0.2423
     24 C         143.0146  135.3573  156.8506 C.ar    1  UNL1        0.1003
     25 C         141.7859  135.3933  155.9909 C.ar    1  UNL1        0.0363
     26 C         141.5363  134.3013  154.9933 C.ar    1  UNL1        0.0046
     27 C         139.0956  143.6949  157.0983 C.3     1  UNL1        0.0252
     28 C         140.0390  144.7646  157.5625 C.3     1  UNL1        0.0339
     29 C         140.0527  146.1004  156.8801 C.3     1  UNL1        0.1422
     30 O         139.1230  146.3664  155.7334 O.3     1  UNL1       -0.3538
     31 C         138.1795  145.2966  155.2691 C.3     1  UNL1        0.1422
     32 C         138.1659  143.9610  155.9515 C.3     1  UNL1        0.0339
@<TRIPOS>BOND
     1    21    22   ar
     2    22    23   ar
     3    23    24   ar
     4    24    25   ar
     5    25    15    1
     6    15    16   ar
     7    16    17   ar
     8    17    18   ar
     9     1    18    1
    10     1     2    1
    11     2     3    1
    12     3     4    2
    13     4     5    1
    14     5     6    2
    15     6     7    1
    16     7     8    1
    17     8     9    2
    18     9    10    1
    19    10    11    2
    20     4    12    1
    21    12    27    1
    22    27    28    1
    23    28    29    1
    24    29    30    1
    25    30    31    1
    26    31    32    1
    27    12    13    1
    28    18    19   ar
    29    25    26   ar
    30    26    21   ar
    31    19    15   ar
    32    13     1    1
    33    11     3    1
    34    32    27    1
    35    11     6    1
    36    13    14    1
    37    19    20    1
@<TRIPOS>MOLECULE
*****
 32 37 0 0 0
SMALL
GASTEIGER

@<TRIPOS>ATOM
      1 C         143.2965  143.0069  157.4413 C.3     1  UNL1        0.1161
      2 C         143.3181  143.1915  158.9298 C.3     1  UNL1        0.0510
      3 C         142.2170  143.9522  159.6072 C.2     1  UNL1       -0.0044
      4 C         141.0943  144.5282  158.7962 C.2     1  UNL1        0.0689
      5 N         140.1546  145.2252  159.7349 N.2     1  UNL1       -0.2526
      6 C         140.6965  145.0800  161.1260 C.2     1  UNL1        0.0627
      7 C         140.1940  145.5625  162.4544 C.3     1  UNL1        0.0717
      8 C         140.9661  145.2581  163.7039 C.2     1  UNL1       -0.0198
      9 C         142.2407  144.4713  163.6249 C.2     1  UNL1       -0.0042
     10 C         142.7432  143.9888  162.2966 C.2     1  UNL1        0.0006
     11 C         141.9711  144.2931  161.0471 C.2     1  UNL1        0.0111
     12 C         141.0727  144.3437  157.3077 C.3     1  UNL1        0.0949
     13 N         142.1739  143.5830  156.6303 N.3     1  UNL1       -0.2887
     14 H         142.5959  144.2173  155.9521 H       1  UNL1        0.1239
     15 C         146.4526  141.7192  155.5849 C.ar    1  UNL1        0.0784
     16 C         145.7318  140.4324  155.8580 C.ar    1  UNL1        0.1172
     17 N         144.4618  140.7582  156.5866 N.ar    1  UNL1       -0.2282
     18 C         144.3977  142.2463  156.7639 C.ar    1  UNL1        0.1318
     19 N         145.6281  142.8403  156.1448 N.ar    1  UNL1       -0.3396
     20 H         145.8547  143.7977  156.1117 H       1  UNL1        0.1671
     21 C         150.3646  141.8393  154.9279 C.ar    1  UNL1        0.0207
     22 C         150.3962  142.1423  153.4591 C.ar    1  UNL1        0.0989
     23 N         149.1133  142.3043  152.6990 N.ar    1  UNL1       -0.2423
     24 C         147.7988  142.1633  153.4076 C.ar    1  UNL1        0.1003
     25 C         147.7672  141.8602  154.8763 C.ar    1  UNL1        0.0363
     26 C         149.0501  141.6983  155.6364 C.ar    1  UNL1        0.0046
     27 C         139.9501  144.9197  156.4967 C.3     1  UNL1        0.0252
     28 C         138.8378  144.0336  156.0199 C.3     1  UNL1        0.0339
     29 C         137.7151  144.6097  155.2088 C.3     1  UNL1        0.1422
     30 O         137.7048  146.0720  154.8747 O.3     1  UNL1       -0.3538
     31 C         138.8171  146.9582  155.3516 C.3     1  UNL1        0.1422
     32 C         139.9397  146.3821  156.1625 C.3     1  UNL1        0.0339
@<TRIPOS>BOND
     1    21    22   ar
     2    22    23   ar
     3    23    24   ar
     4    24    25   ar
     5    25    15    1
     6    15    16   ar
     7    16    17   ar
     8    17    18   ar
     9     1    18    1
    10     1     2    1
    11     2     3    1
    12     3     4    2
    13     4     5    1
    14     5     6    2
    15     6     7    1
    16     7     8    1
    17     8     9    2
    18     9    10    1
    19    10    11    2
    20     4    12    1
    21    12    27    1
    22    27    28    1
    23    28    29    1
    24    29    30    1
    25    30    31    1
    26    31    32    1
    27    12    13    1
    28    18    19   ar
    29    25    26   ar
    30    26    21   ar
    31    19    15   ar
    32    13     1    1
    33    11     3    1
    34    32    27    1
    35    11     6    1
    36    13    14    1
    37    19    20    1
@<TRIPOS>MOLECULE
*****
 32 37 0 0 0
SMALL
GASTEIGER

@<TRIPOS>ATOM
      1 C         143.2944  139.9196  158.0710 C.3     1  UNL1        0.1161
      2 C         143.8745  139.9705  159.4534 C.3     1  UNL1        0.0510
      3 C         143.7285  141.2118  160.2827 C.2     1  UNL1       -0.0044
      4 C         143.0024  142.4022  159.7297 C.2     1  UNL1        0.0689
      5 N         143.0163  143.4796  160.7732 N.2     1  UNL1       -0.2526
      6 C         143.7510  142.9551  161.9712 C.2     1  UNL1        0.0627
      7 C         144.0761  143.5727  163.2989 C.3     1  UNL1        0.0717
      8 C         144.8414  142.7888  164.3235 C.2     1  UNL1       -0.0198
      9 C         145.2815  141.3872  164.0203 C.2     1  UNL1       -0.0042
     10 C         144.9564  140.7696  162.6926 C.2     1  UNL1        0.0006
     11 C         144.1912  141.5536  161.6681 C.2     1  UNL1        0.0111
     12 C         142.4223  142.3512  158.3473 C.3     1  UNL1        0.0949
     13 N         142.5683  141.1099  157.5180 N.3     1  UNL1       -0.2887
     14 H         143.0559  141.3818  156.6643 H       1  UNL1        0.1239
     15 C         143.3158  136.3714  156.4977 C.ar    1  UNL1        0.0784
     16 C         144.0146  137.1645  155.4335 C.ar    1  UNL1        0.1172
     17 N         144.0917  138.5902  155.8933 N.ar    1  UNL1       -0.2282
     18 C         143.4405  138.6782  157.2417 C.ar    1  UNL1        0.1318
     19 N         142.9610  137.3069  157.6153 N.ar    1  UNL1       -0.3396
     20 H         142.4951  137.0636  158.4477 H       1  UNL1        0.1671
     21 C         141.6435  132.9092  155.5146 C.ar    1  UNL1        0.0207
     22 C         142.4380  131.9599  156.3617 C.ar    1  UNL1        0.0989
     23 N         143.5251  132.4811  157.2542 N.ar    1  UNL1       -0.2423
     24 C         143.8177  133.9516  157.2995 C.ar    1  UNL1        0.1003
     25 C         143.0232  134.9008  156.4523 C.ar    1  UNL1        0.0363
     26 C         141.9360  134.3797  155.5599 C.ar    1  UNL1        0.0046
     27 C         141.6962  143.5415  157.7942 C.3     1  UNL1        0.0252
     28 C         140.2494  143.4279  157.4151 C.3     1  UNL1        0.0339
     29 C         139.5233  144.6184  156.8621 C.3     1  UNL1        0.1422
     30 O         140.2441  145.9223  156.6881 O.3     1  UNL1       -0.3538
     31 C         141.6910  146.0359  157.0672 C.3     1  UNL1        0.1422
     32 C         142.4170  144.8455  157.6203 C.3     1  UNL1        0.0339
@<TRIPOS>BOND
     1    21    22   ar
     2    22    23   ar
     3    23    24   ar
     4    24    25   ar
     5    25    15    1
     6    15    16   ar
     7    16    17   ar
     8    17    18   ar
     9     1    18    1
    10     1     2    1
    11     2     3    1
    12     3     4    2
    13     4     5    1
    14     5     6    2
    15     6     7    1
    16     7     8    1
    17     8     9    2
    18     9    10    1
    19    10    11    2
    20     4    12    1
    21    12    27    1
    22    27    28    1
    23    28    29    1
    24    29    30    1
    25    30    31    1
    26    31    32    1
    27    12    13    1
    28    18    19   ar
    29    25    26   ar
    30    26    21   ar
    31    19    15   ar
    32    13     1    1
    33    11     3    1
    34    32    27    1
    35    11     6    1
    36    13    14    1
    37    19    20    1
@<TRIPOS>MOLECULE
*****
 32 37 0 0 0
SMALL
GASTEIGER

@<TRIPOS>ATOM
      1 C         140.1657  144.7124  158.5196 C.3     1  UNL1        0.1161
      2 C         139.4658  143.5094  157.9602 C.3     1  UNL1        0.0510
      3 C         138.7677  143.5963  156.6355 C.2     1  UNL1       -0.0044
      4 C         138.7694  144.8863  155.8701 C.2     1  UNL1        0.0689
      5 N         138.0023  144.6721  154.5990 N.2     1  UNL1       -0.2526
      6 C         137.5265  143.2497  154.5788 C.2     1  UNL1        0.0627
      7 C         136.7237  142.4740  153.5770 C.3     1  UNL1        0.0717
      8 C         136.3939  141.0335  153.8338 C.2     1  UNL1       -0.0198
      9 C         136.8669  140.3686  155.0924 C.2     1  UNL1       -0.0042
     10 C         137.6698  141.1442  156.0942 C.2     1  UNL1        0.0006
     11 C         137.9996  142.5848  155.8374 C.2     1  UNL1        0.0111
     12 C         139.4692  146.0894  156.4295 C.3     1  UNL1        0.0949
     13 N         140.1673  146.0025  157.7542 N.3     1  UNL1       -0.2887
     14 H         139.7401  146.7041  158.3588 H       1  UNL1        0.1239
     15 C         142.3832  143.9516  161.6130 C.ar    1  UNL1        0.0784
     16 C         141.4932  145.0315  162.1530 C.ar    1  UNL1        0.1172
     17 N         140.5542  145.4480  161.0599 N.ar    1  UNL1       -0.2282
     18 C         140.8638  144.6255  159.8444 C.ar    1  UNL1        0.1318
     19 N         141.9942  143.7006  160.1862 N.ar    1  UNL1       -0.3396
     20 H         142.4082  143.0442  159.5804 H       1  UNL1        0.1671
     21 C         144.6308  142.6545  164.6156 C.ar    1  UNL1        0.0207
     22 C         145.6472  141.8360  163.8759 C.ar    1  UNL1        0.0989
     23 N         145.5755  141.7227  162.3819 N.ar    1  UNL1       -0.2423
     24 C         144.4876  142.4279  161.6277 C.ar    1  UNL1        0.1003
     25 C         143.4712  143.2464  162.3673 C.ar    1  UNL1        0.0363
     26 C         143.5429  143.3597  163.8613 C.ar    1  UNL1        0.0046
     27 C         139.4709  147.3794  155.6641 C.3     1  UNL1        0.0252
     28 C         138.7167  148.5645  156.1900 C.3     1  UNL1        0.0339
     29 C         138.7184  149.8546  155.4245 C.3     1  UNL1        0.1422
     30 O         139.4743  149.9595  154.1332 O.3     1  UNL1       -0.3538
     31 C         140.2285  148.7743  153.6072 C.3     1  UNL1        0.1422
     32 C         140.2268  147.4844  154.3726 C.3     1  UNL1        0.0339
@<TRIPOS>BOND
     1    21    22   ar
     2    22    23   ar
     3    23    24   ar
     4    24    25   ar
     5    25    15    1
     6    15    16   ar
     7    16    17   ar
     8    17    18   ar
     9     1    18    1
    10     1     2    1
    11     2     3    1
    12     3     4    2
    13     4     5    1
    14     5     6    2
    15     6     7    1
    16     7     8    1
    17     8     9    2
    18     9    10    1
    19    10    11    2
    20     4    12    1
    21    12    27    1
    22    27    28    1
    23    28    29    1
    24    29    30    1
    25    30    31    1
    26    31    32    1
    27    12    13    1
    28    18    19   ar
    29    25    26   ar
    30    26    21   ar
    31    19    15   ar
    32    13     1    1
    33    11     3    1
    34    32    27    1
    35    11     6    1
    36    13    14    1
    37    19    20    1
@<TRIPOS>MOLECULE
*****
 32 37 0 0 0
SMALL
GASTEIGER

@<TRIPOS>ATOM
      1 C         142.4481  138.9535  158.3566 C.3     1  UNL1        0.1161
      2 C         141.7482  140.1601  157.8051 C.3     1  UNL1        0.0510
      3 C         141.8097  141.4651  158.5421 C.2     1  UNL1       -0.0044
      4 C         142.5711  141.5634  159.8307 C.2     1  UNL1        0.0689
      5 N         142.4558  142.9729  160.3308 N.2     1  UNL1       -0.2526
      6 C         141.6232  143.7457  159.3512 C.2     1  UNL1        0.0627
      7 C         141.1771  145.1775  159.3230 C.3     1  UNL1        0.0717
      8 C         140.3316  145.6774  158.1893 C.2     1  UNL1       -0.0198
      9 C         139.9323  144.7455  157.0839 C.2     1  UNL1       -0.0042
     10 C         140.3784  143.3137  157.1120 C.2     1  UNL1        0.0006
     11 C         141.2239  142.8138  158.2457 C.2     1  UNL1        0.0111
     12 C         143.2710  140.3568  160.3823 C.3     1  UNL1        0.0949
     13 N         143.2095  139.0518  159.6453 N.3     1  UNL1       -0.2887
     14 H         142.7965  138.3721  160.2839 H       1  UNL1        0.1239
     15 C         142.8781  135.3896  156.8804 C.ar    1  UNL1        0.0784
     16 C         141.7058  135.8911  156.0903 C.ar    1  UNL1        0.1172
     17 N         141.4020  137.2872  156.5471 N.ar    1  UNL1       -0.2282
     18 C         142.3865  137.6485  157.6195 C.ar    1  UNL1        0.1318
     19 N         143.2988  136.4758  157.8255 N.ar    1  UNL1       -0.3396
     20 H         144.0430  136.4274  158.4682 H       1  UNL1        0.1671
     21 C         143.9957  131.9032  155.3489 C.ar    1  UNL1        0.0207
     22 C         144.7961  131.3381  156.4848 C.ar    1  UNL1        0.0989
     23 N         144.9571  132.1236  157.7525 N.ar    1  UNL1       -0.2423
     24 C         144.3177  133.4740  157.8843 C.ar    1  UNL1        0.1003
     25 C         143.5174  134.0391  156.7485 C.ar    1  UNL1        0.0363
     26 C         143.3564  133.2537  155.4808 C.ar    1  UNL1        0.0046
     27 C         144.0324  140.4551  161.6710 C.3     1  UNL1        0.0252
     28 C         143.9276  139.3590  162.6895 C.3     1  UNL1        0.0339
     29 C         144.6891  139.4574  163.9782 C.3     1  UNL1        0.1422
     30 O         145.5553  140.6519  164.2482 O.3     1  UNL1       -0.3538
     31 C         145.6600  141.7481  163.2296 C.3     1  UNL1        0.1422
     32 C         144.8986  141.6497  161.9410 C.3     1  UNL1        0.0339
@<TRIPOS>BOND
     1    21    22   ar
     2    22    23   ar
     3    23    24   ar
     4    24    25   ar
     5    25    15    1
     6    15    16   ar
     7    16    17   ar
     8    17    18   ar
     9     1    18    1
    10     1     2    1
    11     2     3    1
    12     3     4    2
    13     4     5    1
    14     5     6    2
    15     6     7    1
    16     7     8    1
    17     8     9    2
    18     9    10    1
    19    10    11    2
    20     4    12    1
    21    12    27    1
    22    27    28    1
    23    28    29    1
    24    29    30    1
    25    30    31    1
    26    31    32    1
    27    12    13    1
    28    18    19   ar
    29    25    26   ar
    30    26    21   ar
    31    19    15   ar
    32    13     1    1
    33    11     3    1
    34    32    27    1
    35    11     6    1
    36    13    14    1
    37    19    20    1
@<TRIPOS>MOLECULE
*****
 32 37 0 0 0
SMALL
GASTEIGER

@<TRIPOS>ATOM
      1 C         142.6342  139.6907  159.5851 C.3     1  UNL1        0.1161
      2 C         142.0286  141.0601  159.4941 C.3     1  UNL1        0.0510
      3 C         141.8267  141.8749  160.7372 C.2     1  UNL1       -0.0044
      4 C         142.2303  141.3203  162.0712 C.2     1  UNL1        0.0689
      5 N         141.9116  142.3483  163.1161 N.2     1  UNL1       -0.2526
      6 C         141.3111  143.5381  162.4278 C.2     1  UNL1        0.0627
      7 C         140.8052  144.8502  162.9500 C.3     1  UNL1        0.0717
      8 C         140.2469  145.8696  162.0018 C.2     1  UNL1       -0.0198
      9 C         140.1945  145.5770  160.5316 C.2     1  UNL1       -0.0042
     10 C         140.7003  144.2650  160.0095 C.2     1  UNL1        0.0006
     11 C         141.2586  143.2455  160.9576 C.2     1  UNL1        0.0111
     12 C         142.8358  139.9510  162.1622 C.3     1  UNL1        0.0949
     13 N         143.0378  139.1362  160.9191 N.3     1  UNL1       -0.2887
     14 H         142.5163  138.2690  161.0475 H       1  UNL1        0.1239
     15 C         142.9946  136.9967  156.8141 C.ar    1  UNL1        0.0784
     16 C         143.2992  138.2473  156.0439 C.ar    1  UNL1        0.1172
     17 N         143.2013  139.4087  156.9881 N.ar    1  UNL1       -0.2282
     18 C         142.8361  138.8759  158.3419 C.ar    1  UNL1        0.1318
     19 N         142.7084  137.3852  158.2344 N.ar    1  UNL1       -0.3396
     20 H         142.4773  136.7699  158.9673 H       1  UNL1        0.1671
     21 C         142.6106  133.9760  154.2689 C.ar    1  UNL1        0.0207
     22 C         142.9475  132.8139  155.1554 C.ar    1  UNL1        0.0989
     23 N         143.3000  133.0460  156.5948 N.ar    1  UNL1       -0.2423
     24 C         143.3157  134.4402  157.1477 C.ar    1  UNL1        0.1003
     25 C         142.9789  135.6024  156.2612 C.ar    1  UNL1        0.0363
     26 C         142.6263  135.3703  154.8218 C.ar    1  UNL1        0.0046
     27 C         143.2394  139.3965  163.4962 C.3     1  UNL1        0.0252
     28 C         144.6714  139.4692  163.9364 C.3     1  UNL1        0.0339
     29 C         145.0750  138.9146  165.2705 C.3     1  UNL1        0.1422
     30 O         144.0465  138.2873  166.1642 O.3     1  UNL1       -0.3538
     31 C         142.6144  138.2146  165.7239 C.3     1  UNL1        0.1422
     32 C         142.2109  138.7691  164.3899 C.3     1  UNL1        0.0339
@<TRIPOS>BOND
     1    21    22   ar
     2    22    23   ar
     3    23    24   ar
     4    24    25   ar
     5    25    15    1
     6    15    16   ar
     7    16    17   ar
     8    17    18   ar
     9     1    18    1
    10     1     2    1
    11     2     3    1
    12     3     4    2
    13     4     5    1
    14     5     6    2
    15     6     7    1
    16     7     8    1
    17     8     9    2
    18     9    10    1
    19    10    11    2
    20     4    12    1
    21    12    27    1
    22    27    28    1
    23    28    29    1
    24    29    30    1
    25    30    31    1
    26    31    32    1
    27    12    13    1
    28    18    19   ar
    29    25    26   ar
    30    26    21   ar
    31    19    15   ar
    32    13     1    1
    33    11     3    1
    34    32    27    1
    35    11     6    1
    36    13    14    1
    37    19    20    1
@<TRIPOS>MOLECULE
*****
 32 37 0 0 0
SMALL
GASTEIGER

@<TRIPOS>ATOM
      1 C         140.8559  144.4414  160.0049 C.3     1  UNL1        0.1161
      2 C         140.2345  145.5160  159.1628 C.3     1  UNL1        0.0510
      3 C         140.5782  145.6203  157.7065 C.2     1  UNL1       -0.0044
      4 C         141.5431  144.6500  157.0922 C.2     1  UNL1        0.0689
      5 N         141.6888  144.9975  155.6403 N.2     1  UNL1       -0.2526
      6 C         140.8139  146.1826  155.3572 C.2     1  UNL1        0.0627
      7 C         140.5536  146.9609  154.1017 C.3     1  UNL1        0.0717
      8 C         139.6069  148.1241  154.1231 C.2     1  UNL1       -0.0198
      9 C         138.9205  148.5091  155.4001 C.2     1  UNL1       -0.0042
     10 C         139.1808  147.7308  156.6556 C.2     1  UNL1        0.0006
     11 C         140.1275  146.5675  156.6342 C.2     1  UNL1        0.0111
     12 C         142.1644  143.5753  157.9343 C.3     1  UNL1        0.0949
     13 N         141.8208  143.4710  159.3907 N.3     1  UNL1       -0.2887
     14 H         142.6961  143.5596  159.9068 H       1  UNL1        0.1239
     15 C         140.6152  143.7910  163.8239 C.ar    1  UNL1        0.0784
     16 C         139.3517  144.5622  163.5810 C.ar    1  UNL1        0.1172
     17 N         139.2881  144.8997  162.1209 N.ar    1  UNL1       -0.2282
     18 C         140.5122  144.3371  161.4614 C.ar    1  UNL1        0.1318
     19 N         141.3324  143.6519  162.5138 N.ar    1  UNL1       -0.3396
     20 H         142.1907  143.1916  162.3700 H       1  UNL1        0.1671
     21 C         140.5843  142.6134  167.6137 C.ar    1  UNL1        0.0207
     22 C         142.0092  142.1779  167.7868 C.ar    1  UNL1        0.0989
     23 N         142.9694  142.2802  166.6390 N.ar    1  UNL1       -0.2423
     24 C         142.5047  142.8178  165.3181 C.ar    1  UNL1        0.1003
     25 C         141.0798  143.2533  165.1449 C.ar    1  UNL1        0.0363
     26 C         140.1196  143.1511  166.2927 C.ar    1  UNL1        0.0046
     27 C         143.1294  142.6050  157.3201 C.3     1  UNL1        0.0252
     28 C         144.5812  142.6527  157.6940 C.3     1  UNL1        0.0339
     29 C         145.5461  141.6823  157.0797 C.3     1  UNL1        0.1422
     30 O         145.0592  140.6642  156.0915 O.3     1  UNL1       -0.3538
     31 C         143.6073  140.6165  155.7176 C.3     1  UNL1        0.1422
     32 C         142.6425  141.5869  156.3319 C.3     1  UNL1        0.0339
@<TRIPOS>BOND
     1    21    22   ar
     2    22    23   ar
     3    23    24   ar
     4    24    25   ar
     5    25    15    1
     6    15    16   ar
     7    16    17   ar
     8    17    18   ar
     9     1    18    1
    10     1     2    1
    11     2     3    1
    12     3     4    2
    13     4     5    1
    14     5     6    2
    15     6     7    1
    16     7     8    1
    17     8     9    2
    18     9    10    1
    19    10    11    2
    20     4    12    1
    21    12    27    1
    22    27    28    1
    23    28    29    1
    24    29    30    1
    25    30    31    1
    26    31    32    1
    27    12    13    1
    28    18    19   ar
    29    25    26   ar
    30    26    21   ar
    31    19    15   ar
    32    13     1    1
    33    11     3    1
    34    32    27    1
    35    11     6    1
    36    13    14    1
    37    19    20    1
