@<TRIPOS>MOLECULE
*****
 38 43 0 0 0
SMALL
GASTEIGER

@<TRIPOS>ATOM
      1 C         139.2220  139.1114  159.6491 C.3     1  UNL1        0.0666
      2 S         140.5579  139.6106  159.1842 S.3     1  UNL1       -0.0756
      3 C         142.8106  141.3427  161.8282 C.ar    1  UNL1        0.1669
      4 N         143.5411  140.0478  161.6286 N.ar    1  UNL1       -0.1282
      5 N         142.7861  139.2415  160.6139 N.ar    1  UNL1       -0.1221
      6 C         141.5890  140.0379  160.1863 C.ar    1  UNL1        0.1932
      7 N         141.6042  141.3365  160.9369 N.ar    1  UNL1       -0.2884
      8 C         140.5908  142.4359  160.8170 C.3     1  UNL1        0.1340
      9 C         143.3248  141.5073  168.6809 C.3     1  UNL1        0.0521
     10 C         143.2975  141.7428  167.1997 C.ar    1  UNL1        0.0593
     11 C         142.8926  140.6361  166.2717 C.ar    1  UNL1        0.0147
     12 C         142.8653  140.8717  164.7905 C.ar    1  UNL1        0.0028
     13 C         143.2427  142.2139  164.2374 C.ar    1  UNL1        0.0206
     14 C         143.2154  142.4494  162.7562 C.ar    1  UNL1        0.0374
     15 C         143.5929  143.7916  162.2032 C.ar    1  UNL1        0.0031
     16 C         143.9977  144.8983  163.1313 C.ar    1  UNL1        0.0016
     17 C         144.0251  144.6628  164.6123 C.ar    1  UNL1        0.0191
     18 C         143.6476  143.3206  165.1655 C.ar    1  UNL1        0.0810
     19 N         143.6750  143.0851  166.6466 N.ar    1  UNL1       -0.2497
     20 C         139.1404  138.1298  160.7805 C.3     1  UNL1        0.0294
     21 C         138.1078  138.3068  161.8539 C.3     1  UNL1        0.0730
     22 N         138.4671  139.0035  163.1328 N.3     1  UNL1       -0.2720
     23 C         138.7241  140.4772  163.0210 C.3     1  UNL1        0.0768
     24 C         139.0994  141.4458  164.1032 C.3     1  UNL1        0.0434
     25 C         139.3103  141.1800  165.5642 C.ar    1  UNL1       -0.0216
     26 C         139.6776  142.4335  166.3018 C.ar    1  UNL1        0.0337
     27 C         139.9327  142.3869  167.7792 C.ar    1  UNL1        0.1525
     28 C         139.8205  141.0869  168.5191 C.ar    1  UNL1        0.0878
     29 C         139.4532  139.8334  167.7815 C.ar    1  UNL1        0.0135
     30 C         139.1981  139.8800  166.3041 C.ar    1  UNL1       -0.0233
     31 C         138.8472  138.5247  165.7656 C.3     1  UNL1        0.0434
     32 C         138.5219  138.1347  164.3542 C.3     1  UNL1        0.0768
     33 N         140.0755  141.0404  169.9965 N.am    1  UNL1       -0.2512
     34 C         139.9633  139.7403  170.7363 C.3     1  UNL1        0.1202
     35 C         140.4428  142.2938  170.7340 C.2     1  UNL1        0.2740
     36 O         140.6979  142.2472  172.2114 O.2     1  UNL1       -0.2705
     37 C         140.5550  143.5938  169.9942 C.3     1  UNL1        0.2900
     38 O         140.3000  143.6403  168.5168 O.3     1  UNL1       -0.4643
@<TRIPOS>BOND
     1     9    10    1
     2    10    11   ar
     3    11    12   ar
     4    12    13   ar
     5    13    14   ar
     6    14     3    1
     7     3     4   ar
     8     4     5   ar
     9     5     6   ar
    10     6     2    1
    11     2     1    1
    12     1    20    1
    13    20    21    1
    14    21    22    1
    15    22    23    1
    16    23    24    1
    17    24    25    1
    18    25    26   ar
    19    26    27   ar
    20    27    28   ar
    21    28    29   ar
    22    29    30   ar
    23    30    31    1
    24    31    32    1
    25    28    33    1
    26    33    34    1
    27    33    35   am
    28    35    36    2
    29    35    37    1
    30    37    38    1
    31     6     7   ar
    32     7     8    1
    33    14    15   ar
    34    15    16   ar
    35    16    17   ar
    36    17    18   ar
    37    18    19   ar
    38    19    10   ar
    39    18    13   ar
    40     7     3   ar
    41    32    22    1
    42    30    25   ar
    43    38    27    1
@<TRIPOS>MOLECULE
*****
 38 43 0 0 0
SMALL
GASTEIGER

@<TRIPOS>ATOM
      1 C         142.0908  144.7392  157.7405 C.3     1  UNL1        0.0666
      2 S         143.0840  143.6545  158.0356 S.3     1  UNL1       -0.0756
      3 C         142.4213  141.2653  161.0219 C.ar    1  UNL1        0.1669
      4 N         143.3840  142.2376  161.6366 N.ar    1  UNL1       -0.1282
      5 N         143.7494  143.2509  160.5928 N.ar    1  UNL1       -0.1221
      6 C         143.0125  142.9049  159.3329 C.ar    1  UNL1        0.1932
      7 N         142.1918  141.6778  159.5981 N.ar    1  UNL1       -0.2884
      8 C         141.2982  140.9847  158.6125 C.3     1  UNL1        0.1340
      9 C         142.9565  139.0381  167.5029 C.3     1  UNL1        0.0521
     10 C         142.6668  139.3004  166.0547 C.ar    1  UNL1        0.0593
     11 C         143.2904  140.4783  165.3665 C.ar    1  UNL1        0.0147
     12 C         143.0007  140.7406  163.9183 C.ar    1  UNL1        0.0028
     13 C         142.0874  139.8251  163.1583 C.ar    1  UNL1        0.0206
     14 C         141.7977  140.0874  161.7100 C.ar    1  UNL1        0.0374
     15 C         140.8844  139.1718  160.9502 C.ar    1  UNL1        0.0031
     16 C         140.2607  137.9939  161.6384 C.ar    1  UNL1        0.0016
     17 C         140.5504  137.7316  163.0865 C.ar    1  UNL1        0.0191
     18 C         141.4637  138.6472  163.8465 C.ar    1  UNL1        0.0810
     19 N         141.7534  138.3848  165.2947 N.ar    1  UNL1       -0.2497
     20 C         141.3185  145.3734  158.8592 C.3     1  UNL1        0.0294
     21 C         139.9582  144.8544  159.2200 C.3     1  UNL1        0.0730
     22 N         139.7703  144.0492  160.4715 N.3     1  UNL1       -0.2720
     23 C         138.8385  142.8791  160.3588 C.3     1  UNL1        0.0768
     24 C         138.4454  141.8913  161.4170 C.3     1  UNL1        0.0434
     25 C         138.8868  141.8297  162.8492 C.ar    1  UNL1       -0.0216
     26 C         138.2522  140.6769  163.5691 C.ar    1  UNL1        0.0337
     27 C         138.5613  140.4350  165.0169 C.ar    1  UNL1        0.1525
     28 C         139.5049  141.3459  165.7447 C.ar    1  UNL1        0.0878
     29 C         140.1395  142.4988  165.0248 C.ar    1  UNL1        0.0135
     30 C         139.8304  142.7406  163.5770 C.ar    1  UNL1       -0.0233
     31 C         140.5657  143.9382  163.0524 C.3     1  UNL1        0.0434
     32 C         140.5389  144.5205  161.6702 C.3     1  UNL1        0.0768
     33 N         139.8140  141.1040  167.1925 N.am    1  UNL1       -0.2512
     34 C         140.7576  142.0150  167.9202 C.3     1  UNL1        0.1202
     35 C         139.1794  139.9512  167.9123 C.2     1  UNL1        0.2740
     36 O         139.4885  139.7093  169.3601 O.2     1  UNL1       -0.2705
     37 C         138.2357  139.0402  167.1846 C.3     1  UNL1        0.2900
     38 O         137.9267  139.2822  165.7368 O.3     1  UNL1       -0.4643
@<TRIPOS>BOND
     1     9    10    1
     2    10    11   ar
     3    11    12   ar
     4    12    13   ar
     5    13    14   ar
     6    14     3    1
     7     3     4   ar
     8     4     5   ar
     9     5     6   ar
    10     6     2    1
    11     2     1    1
    12     1    20    1
    13    20    21    1
    14    21    22    1
    15    22    23    1
    16    23    24    1
    17    24    25    1
    18    25    26   ar
    19    26    27   ar
    20    27    28   ar
    21    28    29   ar
    22    29    30   ar
    23    30    31    1
    24    31    32    1
    25    28    33    1
    26    33    34    1
    27    33    35   am
    28    35    36    2
    29    35    37    1
    30    37    38    1
    31     6     7   ar
    32     7     8    1
    33    14    15   ar
    34    15    16   ar
    35    16    17   ar
    36    17    18   ar
    37    18    19   ar
    38    19    10   ar
    39    18    13   ar
    40     7     3   ar
    41    32    22    1
    42    30    25   ar
    43    38    27    1
@<TRIPOS>MOLECULE
*****
 38 43 0 0 0
SMALL
GASTEIGER

@<TRIPOS>ATOM
      1 C         142.9399  138.1468  158.7506 C.3     1  UNL1        0.0666
      2 S         142.6400  139.4497  158.0705 S.3     1  UNL1       -0.0756
      3 C         142.1445  142.7288  160.0873 C.ar    1  UNL1        0.1669
      4 N         143.6373  142.7001  159.9428 N.ar    1  UNL1       -0.1282
      5 N         144.0045  141.4683  159.1698 N.ar    1  UNL1       -0.1221
      6 C         142.7388  140.7356  158.8364 C.ar    1  UNL1        0.1932
      7 N         141.5893  141.5147  159.4035 N.ar    1  UNL1       -0.2884
      8 C         140.1390  141.1445  159.3042 C.3     1  UNL1        0.1340
      9 C         140.1292  143.2262  166.6403 C.3     1  UNL1        0.0521
     10 C         140.4337  143.3661  165.1782 C.ar    1  UNL1        0.0593
     11 C         141.2312  142.3089  164.4736 C.ar    1  UNL1        0.0147
     12 C         141.5356  142.4489  163.0115 C.ar    1  UNL1        0.0028
     13 C         141.0426  143.6460  162.2540 C.ar    1  UNL1        0.0206
     14 C         141.3471  143.7859  160.7918 C.ar    1  UNL1        0.0374
     15 C         140.8540  144.9830  160.0344 C.ar    1  UNL1        0.0031
     16 C         140.0565  146.0402  160.7390 C.ar    1  UNL1        0.0016
     17 C         139.7521  145.9003  162.2010 C.ar    1  UNL1        0.0191
     18 C         140.2451  144.7032  162.9585 C.ar    1  UNL1        0.0810
     19 N         139.9406  144.5633  164.4207 N.ar    1  UNL1       -0.2497
     20 C         142.4161  137.8836  160.1314 C.3     1  UNL1        0.0294
     21 C         143.3425  137.9462  161.3095 C.3     1  UNL1        0.0730
     22 N         142.8163  138.3422  162.6572 N.3     1  UNL1       -0.2720
     23 C         141.3418  138.1560  162.8604 C.3     1  UNL1        0.0768
     24 C         140.5209  138.4537  164.0802 C.3     1  UNL1        0.0434
     25 C         140.9718  139.0108  165.3978 C.ar    1  UNL1       -0.0216
     26 C         139.8245  139.1551  166.3533 C.ar    1  UNL1        0.0337
     27 C         140.0603  139.6966  167.7321 C.ar    1  UNL1        0.1525
     28 C         141.4434  140.0939  168.1555 C.ar    1  UNL1        0.0878
     29 C         142.5907  139.9496  167.2000 C.ar    1  UNL1        0.0135
     30 C         142.3549  139.4081  165.8212 C.ar    1  UNL1       -0.0233
     31 C         143.6287  139.3462  165.0315 C.3     1  UNL1        0.0434
     32 C         143.8340  138.8718  163.6234 C.3     1  UNL1        0.0768
     33 N         141.6792  140.6354  169.5343 N.am    1  UNL1       -0.2512
     34 C         143.0623  141.0326  169.9576 C.3     1  UNL1        0.1202
     35 C         140.5319  140.7796  170.4897 C.2     1  UNL1        0.2740
     36 O         140.7677  141.3211  171.8685 O.2     1  UNL1       -0.2705
     37 C         139.1488  140.3824  170.0664 C.3     1  UNL1        0.2900
     38 O         138.9130  139.8409  168.6875 O.3     1  UNL1       -0.4643
@<TRIPOS>BOND
     1     9    10    1
     2    10    11   ar
     3    11    12   ar
     4    12    13   ar
     5    13    14   ar
     6    14     3    1
     7     3     4   ar
     8     4     5   ar
     9     5     6   ar
    10     6     2    1
    11     2     1    1
    12     1    20    1
    13    20    21    1
    14    21    22    1
    15    22    23    1
    16    23    24    1
    17    24    25    1
    18    25    26   ar
    19    26    27   ar
    20    27    28   ar
    21    28    29   ar
    22    29    30   ar
    23    30    31    1
    24    31    32    1
    25    28    33    1
    26    33    34    1
    27    33    35   am
    28    35    36    2
    29    35    37    1
    30    37    38    1
    31     6     7   ar
    32     7     8    1
    33    14    15   ar
    34    15    16   ar
    35    16    17   ar
    36    17    18   ar
    37    18    19   ar
    38    19    10   ar
    39    18    13   ar
    40     7     3   ar
    41    32    22    1
    42    30    25   ar
    43    38    27    1
@<TRIPOS>MOLECULE
*****
 38 43 0 0 0
SMALL
GASTEIGER

@<TRIPOS>ATOM
      1 C         140.1504  144.2379  157.2589 C.3     1  UNL1        0.0666
      2 S         139.2103  143.1011  157.5305 S.3     1  UNL1       -0.0756
      3 C         139.6123  140.9818  160.7573 C.ar    1  UNL1        0.1669
      4 N         138.6128  142.0064  161.2061 N.ar    1  UNL1       -0.1282
      5 N         138.3407  142.9250  160.0519 N.ar    1  UNL1       -0.1221
      6 C         139.1719  142.4681  158.8898 C.ar    1  UNL1        0.1932
      7 N         139.9577  141.2672  159.3258 N.ar    1  UNL1       -0.2884
      8 C         140.9202  140.4883  158.4790 C.3     1  UNL1        0.1340
      9 C         138.2148  139.0673  167.2096 C.3     1  UNL1        0.0521
     10 C         138.7032  139.2674  165.8055 C.ar    1  UNL1        0.0593
     11 C         138.1469  140.3817  164.9695 C.ar    1  UNL1        0.0147
     12 C         138.6354  140.5817  163.5655 C.ar    1  UNL1        0.0028
     13 C         139.6801  139.6675  162.9974 C.ar    1  UNL1        0.0206
     14 C         140.1686  139.8676  161.5933 C.ar    1  UNL1        0.0374
     15 C         141.2133  138.9533  161.0253 C.ar    1  UNL1        0.0031
     16 C         141.7696  137.8390  161.8613 C.ar    1  UNL1        0.0016
     17 C         141.2812  137.6390  163.2653 C.ar    1  UNL1        0.0191
     18 C         140.2364  138.5532  163.8334 C.ar    1  UNL1        0.0810
     19 N         139.7480  138.3531  165.2375 N.ar    1  UNL1       -0.2497
     20 C         140.3432  145.3136  158.2866 C.3     1  UNL1        0.0294
     21 C         141.5974  145.3496  159.1084 C.3     1  UNL1        0.0730
     22 N         141.6762  144.5759  160.3911 N.3     1  UNL1       -0.2720
     23 C         140.7992  145.0694  161.5035 C.3     1  UNL1        0.0768
     24 C         140.6509  144.5199  162.8914 C.3     1  UNL1        0.0434
     25 C         141.3429  143.3414  163.5095 C.ar    1  UNL1       -0.0216
     26 C         140.9054  143.1315  164.9289 C.ar    1  UNL1        0.0337
     27 C         141.4792  142.0015  165.7313 C.ar    1  UNL1        0.1525
     28 C         142.4904  141.0813  165.1144 C.ar    1  UNL1        0.0878
     29 C         142.9279  141.2912  163.6949 C.ar    1  UNL1        0.0135
     30 C         142.3541  142.4212  162.8926 C.ar    1  UNL1       -0.0233
     31 C         142.9231  142.4523  161.5050 C.3     1  UNL1        0.0434
     32 C         142.6214  143.4113  160.3918 C.3     1  UNL1        0.0768
     33 N         143.0642  139.9513  165.9167 N.am    1  UNL1       -0.2512
     34 C         144.0755  139.0311  165.2997 C.3     1  UNL1        0.1202
     35 C         142.6267  139.7414  167.3360 C.2     1  UNL1        0.2740
     36 O         143.2005  138.6114  168.1384 O.2     1  UNL1       -0.2705
     37 C         141.6155  140.6616  167.9531 C.3     1  UNL1        0.2900
     38 O         141.0417  141.7916  167.1506 O.3     1  UNL1       -0.4643
@<TRIPOS>BOND
     1     9    10    1
     2    10    11   ar
     3    11    12   ar
     4    12    13   ar
     5    13    14   ar
     6    14     3    1
     7     3     4   ar
     8     4     5   ar
     9     5     6   ar
    10     6     2    1
    11     2     1    1
    12     1    20    1
    13    20    21    1
    14    21    22    1
    15    22    23    1
    16    23    24    1
    17    24    25    1
    18    25    26   ar
    19    26    27   ar
    20    27    28   ar
    21    28    29   ar
    22    29    30   ar
    23    30    31    1
    24    31    32    1
    25    28    33    1
    26    33    34    1
    27    33    35   am
    28    35    36    2
    29    35    37    1
    30    37    38    1
    31     6     7   ar
    32     7     8    1
    33    14    15   ar
    34    15    16   ar
    35    16    17   ar
    36    17    18   ar
    37    18    19   ar
    38    19    10   ar
    39    18    13   ar
    40     7     3   ar
    41    32    22    1
    42    30    25   ar
    43    38    27    1
@<TRIPOS>MOLECULE
*****
 38 43 0 0 0
SMALL
GASTEIGER

@<TRIPOS>ATOM
      1 C         142.1825  137.8899  159.0866 C.3     1  UNL1        0.0666
      2 S         140.8546  138.5319  158.8138 S.3     1  UNL1       -0.0756
      3 C         139.3769  140.9473  161.4686 C.ar    1  UNL1        0.1669
      4 N         138.6091  139.6919  161.7595 N.ar    1  UNL1       -0.1282
      5 N         139.0692  138.6344  160.8004 N.ar    1  UNL1       -0.1221
      6 C         140.1214  139.2361  159.9168 C.ar    1  UNL1        0.1932
      7 N         140.3115  140.6655  160.3297 N.ar    1  UNL1       -0.2884
      8 C         141.2684  141.6418  159.7122 C.3     1  UNL1        0.1340
      9 C         143.9806  144.7010  164.9278 C.3     1  UNL1        0.0521
     10 C         142.7942  144.0894  164.2433 C.ar    1  UNL1        0.0593
     11 C         142.9361  142.7819  163.5220 C.ar    1  UNL1        0.0147
     12 C         141.7497  142.1704  162.8375 C.ar    1  UNL1        0.0028
     13 C         140.4214  142.8663  162.8744 C.ar    1  UNL1        0.0206
     14 C         139.2350  142.2547  162.1899 C.ar    1  UNL1        0.0374
     15 C         137.9068  142.9507  162.2269 C.ar    1  UNL1        0.0031
     16 C         137.7649  144.2582  162.9482 C.ar    1  UNL1        0.0016
     17 C         138.9512  144.8697  163.6326 C.ar    1  UNL1        0.0191
     18 C         140.2795  144.1738  163.5957 C.ar    1  UNL1        0.0810
     19 N         141.4659  144.7854  164.2802 N.ar    1  UNL1       -0.2497
     20 C         143.1758  138.5717  159.9803 C.3     1  UNL1        0.0294
     21 C         143.6370  137.8994  161.2393 C.3     1  UNL1        0.0730
     22 N         143.1236  138.3648  162.5696 N.3     1  UNL1       -0.2720
     23 C         141.6994  138.0090  162.8782 C.3     1  UNL1        0.0768
     24 C         140.9020  138.3251  164.1088 C.3     1  UNL1        0.0434
     25 C         141.3319  139.0749  165.3346 C.ar    1  UNL1       -0.0216
     26 C         140.2204  139.1685  166.3377 C.ar    1  UNL1        0.0337
     27 C         140.4424  139.8811  167.6388 C.ar    1  UNL1        0.1525
     28 C         141.7757  140.5002  167.9370 C.ar    1  UNL1        0.0878
     29 C         142.8872  140.4066  166.9339 C.ar    1  UNL1        0.0135
     30 C         142.6652  139.6940  165.6328 C.ar    1  UNL1       -0.0233
     31 C         143.8981  139.7161  164.7787 C.3     1  UNL1        0.0434
     32 C         144.1020  139.1245  163.4154 C.3     1  UNL1        0.0768
     33 N         141.9977  141.2128  169.2381 N.am    1  UNL1       -0.2512
     34 C         143.3311  141.8319  169.5361 C.3     1  UNL1        0.1202
     35 C         140.8863  141.3064  170.2410 C.2     1  UNL1        0.2740
     36 O         141.1082  142.0190  171.5421 O.2     1  UNL1       -0.2705
     37 C         139.5529  140.6873  169.9429 C.3     1  UNL1        0.2900
     38 O         139.3310  139.9747  168.6418 O.3     1  UNL1       -0.4643
@<TRIPOS>BOND
     1     9    10    1
     2    10    11   ar
     3    11    12   ar
     4    12    13   ar
     5    13    14   ar
     6    14     3    1
     7     3     4   ar
     8     4     5   ar
     9     5     6   ar
    10     6     2    1
    11     2     1    1
    12     1    20    1
    13    20    21    1
    14    21    22    1
    15    22    23    1
    16    23    24    1
    17    24    25    1
    18    25    26   ar
    19    26    27   ar
    20    27    28   ar
    21    28    29   ar
    22    29    30   ar
    23    30    31    1
    24    31    32    1
    25    28    33    1
    26    33    34    1
    27    33    35   am
    28    35    36    2
    29    35    37    1
    30    37    38    1
    31     6     7   ar
    32     7     8    1
    33    14    15   ar
    34    15    16   ar
    35    16    17   ar
    36    17    18   ar
    37    18    19   ar
    38    19    10   ar
    39    18    13   ar
    40     7     3   ar
    41    32    22    1
    42    30    25   ar
    43    38    27    1
@<TRIPOS>MOLECULE
*****
 38 43 0 0 0
SMALL
GASTEIGER

@<TRIPOS>ATOM
      1 C         144.1907  142.9398  158.8794 C.3     1  UNL1        0.0666
      2 S         142.8461  143.4926  158.5102 S.3     1  UNL1       -0.0756
      3 C         139.8917  142.6007  160.8642 C.ar    1  UNL1        0.1669
      4 N         139.5365  141.8091  159.6406 N.ar    1  UNL1       -0.1282
      5 N         140.6000  142.0469  158.6099 N.ar    1  UNL1       -0.1221
      6 C         141.6125  142.9855  159.1964 C.ar    1  UNL1        0.1932
      7 N         141.1747  143.3277  160.5897 N.ar    1  UNL1       -0.2884
      8 C         141.8938  144.2373  161.5414 C.3     1  UNL1        0.1340
      9 C         138.4852  137.7240  165.5000 C.3     1  UNL1        0.0521
     10 C         138.6395  138.9569  164.6596 C.ar    1  UNL1        0.0593
     11 C         139.4288  138.9020  163.3852 C.ar    1  UNL1        0.0147
     12 C         139.5831  140.1349  162.5449 C.ar    1  UNL1        0.0028
     13 C         138.9482  141.4228  162.9789 C.ar    1  UNL1        0.0206
     14 C         139.1025  142.6557  162.1386 C.ar    1  UNL1        0.0374
     15 C         138.4676  143.9434  162.5727 C.ar    1  UNL1        0.0031
     16 C         137.6783  143.9983  163.8471 C.ar    1  UNL1        0.0016
     17 C         137.5240  142.7655  164.6874 C.ar    1  UNL1        0.0191
     18 C         138.1589  141.4777  164.2533 C.ar    1  UNL1        0.0810
     19 N         138.0046  140.2448  165.0937 N.ar    1  UNL1       -0.2497
     20 C         144.3150  141.9632  160.0113 C.3     1  UNL1        0.0294
     21 C         145.0098  142.3674  161.2777 C.3     1  UNL1        0.0730
     22 N         144.3661  142.0976  162.6054 N.3     1  UNL1       -0.2720
     23 C         143.4135  140.9395  162.6434 C.3     1  UNL1        0.0768
     24 C         142.6196  140.4193  163.8050 C.3     1  UNL1        0.0434
     25 C         142.5822  140.9287  165.2152 C.ar    1  UNL1       -0.0216
     26 C         141.6510  140.1172  166.0665 C.ar    1  UNL1        0.0337
     27 C         141.4671  140.4612  167.5149 C.ar    1  UNL1        0.1525
     28 C         142.2143  141.6167  168.1121 C.ar    1  UNL1        0.0878
     29 C         143.1455  142.4282  167.2608 C.ar    1  UNL1        0.0135
     30 C         143.3294  142.0841  165.8124 C.ar    1  UNL1       -0.0233
     31 C         144.2986  143.0155  165.1468 C.3     1  UNL1        0.0434
     32 C         144.7599  143.0215  163.7195 C.3     1  UNL1        0.0768
     33 N         142.0304  141.9607  169.5605 N.am    1  UNL1       -0.2512
     34 C         142.7776  143.1162  170.1576 C.3     1  UNL1        0.1202
     35 C         141.0993  141.1493  170.4116 C.2     1  UNL1        0.2740
     36 O         140.9154  141.4933  171.8600 O.2     1  UNL1       -0.2705
     37 C         140.3520  139.9938  169.8145 C.3     1  UNL1        0.2900
     38 O         140.5360  139.6499  168.3661 O.3     1  UNL1       -0.4643
@<TRIPOS>BOND
     1     9    10    1
     2    10    11   ar
     3    11    12   ar
     4    12    13   ar
     5    13    14   ar
     6    14     3    1
     7     3     4   ar
     8     4     5   ar
     9     5     6   ar
    10     6     2    1
    11     2     1    1
    12     1    20    1
    13    20    21    1
    14    21    22    1
    15    22    23    1
    16    23    24    1
    17    24    25    1
    18    25    26   ar
    19    26    27   ar
    20    27    28   ar
    21    28    29   ar
    22    29    30   ar
    23    30    31    1
    24    31    32    1
    25    28    33    1
    26    33    34    1
    27    33    35   am
    28    35    36    2
    29    35    37    1
    30    37    38    1
    31     6     7   ar
    32     7     8    1
    33    14    15   ar
    34    15    16   ar
    35    16    17   ar
    36    17    18   ar
    37    18    19   ar
    38    19    10   ar
    39    18    13   ar
    40     7     3   ar
    41    32    22    1
    42    30    25   ar
    43    38    27    1
@<TRIPOS>MOLECULE
*****
 38 43 0 0 0
SMALL
GASTEIGER

@<TRIPOS>ATOM
      1 C         143.1450  139.8954  159.0033 C.3     1  UNL1        0.0666
      2 S         142.7578  139.8015  157.5572 S.3     1  UNL1       -0.0756
      3 C         143.3752  136.5545  155.5222 C.ar    1  UNL1        0.1669
      4 N         144.6829  137.2657  155.3370 N.ar    1  UNL1       -0.1282
      5 N         144.6107  138.5686  156.0768 N.ar    1  UNL1       -0.1221
      6 C         143.2585  138.6626  156.7192 C.ar    1  UNL1        0.1932
      7 N         142.4950  137.4178  156.3765 N.ar    1  UNL1       -0.2884
      8 C         141.0966  137.0933  156.8116 C.3     1  UNL1        0.1340
      9 C         144.4519  130.2034  157.9213 C.3     1  UNL1        0.0521
     10 C         144.0918  131.4564  157.1793 C.ar    1  UNL1        0.0593
     11 C         144.4553  132.7958  157.7484 C.ar    1  UNL1        0.0147
     12 C         144.0953  134.0486  157.0063 C.ar    1  UNL1        0.0028
     13 C         143.3718  133.9622  155.6952 C.ar    1  UNL1        0.0206
     14 C         143.0117  135.2151  154.9532 C.ar    1  UNL1        0.0374
     15 C         142.2882  135.1285  153.6421 C.ar    1  UNL1        0.0031
     16 C         141.9248  133.7891  153.0730 C.ar    1  UNL1        0.0016
     17 C         142.2848  132.5363  153.8149 C.ar    1  UNL1        0.0191
     18 C         143.0083  132.6228  155.1261 C.ar    1  UNL1        0.0810
     19 N         143.3683  131.3698  155.8681 N.ar    1  UNL1       -0.2497
     20 C         142.7380  138.8144  159.9604 C.3     1  UNL1        0.0294
     21 C         143.5620  138.5478  161.1851 C.3     1  UNL1        0.0730
     22 N         142.9951  138.8261  162.5457 N.3     1  UNL1       -0.2720
     23 C         141.5108  138.6555  162.6796 C.3     1  UNL1        0.0768
     24 C         140.6523  138.8549  163.8934 C.3     1  UNL1        0.0434
     25 C         141.0659  139.2739  165.2729 C.ar    1  UNL1       -0.0216
     26 C         139.8877  139.3533  166.1979 C.ar    1  UNL1        0.0337
     27 C         140.0839  139.7559  167.6295 C.ar    1  UNL1        0.1525
     28 C         141.4583  140.0791  168.1361 C.ar    1  UNL1        0.0878
     29 C         142.6365  139.9998  167.2111 C.ar    1  UNL1        0.0135
     30 C         142.4403  139.5972  165.7795 C.ar    1  UNL1       -0.0233
     31 C         143.7404  139.5813  165.0316 C.3     1  UNL1        0.0434
     32 C         143.9873  139.2380  163.5924 C.3     1  UNL1        0.0768
     33 N         141.6545  140.4817  169.5677 N.am    1  UNL1       -0.2512
     34 C         143.0289  140.8050  170.0742 C.3     1  UNL1        0.1202
     35 C         140.4763  140.5610  170.4926 C.2     1  UNL1        0.2740
     36 O         140.6725  140.9636  171.9242 O.2     1  UNL1       -0.2705
     37 C         139.1019  140.2378  169.9861 C.3     1  UNL1        0.2900
     38 O         138.9058  139.8352  168.5545 O.3     1  UNL1       -0.4643
@<TRIPOS>BOND
     1     9    10    1
     2    10    11   ar
     3    11    12   ar
     4    12    13   ar
     5    13    14   ar
     6    14     3    1
     7     3     4   ar
     8     4     5   ar
     9     5     6   ar
    10     6     2    1
    11     2     1    1
    12     1    20    1
    13    20    21    1
    14    21    22    1
    15    22    23    1
    16    23    24    1
    17    24    25    1
    18    25    26   ar
    19    26    27   ar
    20    27    28   ar
    21    28    29   ar
    22    29    30   ar
    23    30    31    1
    24    31    32    1
    25    28    33    1
    26    33    34    1
    27    33    35   am
    28    35    36    2
    29    35    37    1
    30    37    38    1
    31     6     7   ar
    32     7     8    1
    33    14    15   ar
    34    15    16   ar
    35    16    17   ar
    36    17    18   ar
    37    18    19   ar
    38    19    10   ar
    39    18    13   ar
    40     7     3   ar
    41    32    22    1
    42    30    25   ar
    43    38    27    1
@<TRIPOS>MOLECULE
*****
 38 43 0 0 0
SMALL
GASTEIGER

@<TRIPOS>ATOM
      1 C         143.9049  140.2772  159.1956 C.3     1  UNL1        0.0666
      2 S         143.0452  139.1584  159.7044 S.3     1  UNL1       -0.0756
      3 C         141.7202  139.0657  163.3515 C.ar    1  UNL1        0.1669
      4 N         143.1049  138.5178  163.5321 N.ar    1  UNL1       -0.1282
      5 N         143.7697  138.4858  162.1879 N.ar    1  UNL1       -0.1221
      6 C         142.7960  139.0140  161.1765 C.ar    1  UNL1        0.1932
      7 N         141.5294  139.3723  161.8957 N.ar    1  UNL1       -0.2884
      8 C         140.2895  139.9380  161.2690 C.3     1  UNL1        0.1340
      9 C         142.3993  139.1629  170.1911 C.3     1  UNL1        0.0521
     10 C         141.9757  139.1899  168.7524 C.ar    1  UNL1        0.0593
     11 C         142.9912  138.9846  167.6676 C.ar    1  UNL1        0.0147
     12 C         142.5675  139.0117  166.2289 C.ar    1  UNL1        0.0028
     13 C         141.1285  139.2439  165.8750 C.ar    1  UNL1        0.0206
     14 C         140.7049  139.2709  164.4363 C.ar    1  UNL1        0.0374
     15 C         139.2658  139.5031  164.0825 C.ar    1  UNL1        0.0031
     16 C         138.2504  139.7083  165.1673 C.ar    1  UNL1        0.0016
     17 C         138.6740  139.6813  166.6059 C.ar    1  UNL1        0.0191
     18 C         140.1130  139.4491  166.9598 C.ar    1  UNL1        0.0810
     19 N         140.5366  139.4221  168.3985 N.ar    1  UNL1       -0.2497
     20 C         144.2794  141.4090  160.1061 C.3     1  UNL1        0.0294
     21 C         143.2310  142.3755  160.5714 C.3     1  UNL1        0.0730
     22 N         142.8859  142.4636  162.0286 N.3     1  UNL1       -0.2720
     23 C         141.4541  142.7846  162.3399 C.3     1  UNL1        0.0768
     24 C         140.8009  142.9403  163.6814 C.3     1  UNL1        0.0434
     25 C         141.4183  142.8135  165.0424 C.ar    1  UNL1       -0.0216
     26 C         140.4079  143.0467  166.1263 C.ar    1  UNL1        0.0337
     27 C         140.8204  142.9661  167.5662 C.ar    1  UNL1        0.1525
     28 C         142.2434  142.6522  167.9223 C.ar    1  UNL1        0.0878
     29 C         143.2538  142.4190  166.8384 C.ar    1  UNL1        0.0135
     30 C         142.8412  142.4997  165.3985 C.ar    1  UNL1       -0.0233
     31 C         143.9983  142.2351  164.4813 C.3     1  UNL1        0.0434
     32 C         144.0181  142.2191  162.9815 C.3     1  UNL1        0.0768
     33 N         142.6559  142.5716  169.3622 N.am    1  UNL1       -0.2512
     34 C         144.0789  142.2578  169.7182 C.3     1  UNL1        0.1202
     35 C         141.6455  142.8048  170.4460 C.2     1  UNL1        0.2740
     36 O         142.0581  142.7242  171.8859 O.2     1  UNL1       -0.2705
     37 C         140.2226  143.1187  170.0900 C.3     1  UNL1        0.2900
     38 O         139.8101  143.1993  168.6501 O.3     1  UNL1       -0.4643
@<TRIPOS>BOND
     1     9    10    1
     2    10    11   ar
     3    11    12   ar
     4    12    13   ar
     5    13    14   ar
     6    14     3    1
     7     3     4   ar
     8     4     5   ar
     9     5     6   ar
    10     6     2    1
    11     2     1    1
    12     1    20    1
    13    20    21    1
    14    21    22    1
    15    22    23    1
    16    23    24    1
    17    24    25    1
    18    25    26   ar
    19    26    27   ar
    20    27    28   ar
    21    28    29   ar
    22    29    30   ar
    23    30    31    1
    24    31    32    1
    25    28    33    1
    26    33    34    1
    27    33    35   am
    28    35    36    2
    29    35    37    1
    30    37    38    1
    31     6     7   ar
    32     7     8    1
    33    14    15   ar
    34    15    16   ar
    35    16    17   ar
    36    17    18   ar
    37    18    19   ar
    38    19    10   ar
    39    18    13   ar
    40     7     3   ar
    41    32    22    1
    42    30    25   ar
    43    38    27    1
@<TRIPOS>MOLECULE
*****
 38 43 0 0 0
SMALL
GASTEIGER

@<TRIPOS>ATOM
      1 C         142.2743  140.5118  170.8325 C.3     1  UNL1        0.0666
      2 S         142.2271  139.2104  170.0883 S.3     1  UNL1       -0.0756
      3 C         141.3420  139.4061  166.3142 C.ar    1  UNL1        0.1669
      4 N         142.7817  138.9891  166.2531 N.ar    1  UNL1       -0.1282
      5 N         143.2884  138.8651  167.6594 N.ar    1  UNL1       -0.1221
      6 C         142.1620  139.2053  168.5897 C.ar    1  UNL1        0.1932
      7 N         140.9591  139.5397  167.7584 N.ar    1  UNL1       -0.2884
      8 C         139.6101  139.9378  168.2796 C.3     1  UNL1        0.1340
      9 C         142.6725  139.4571  159.5705 C.3     1  UNL1        0.0521
     10 C         142.1152  139.5046  160.9624 C.ar    1  UNL1        0.0593
     11 C         143.0140  139.2635  162.1388 C.ar    1  UNL1        0.0147
     12 C         142.4567  139.3111  163.5306 C.ar    1  UNL1        0.0028
     13 C         141.0005  139.5996  163.7460 C.ar    1  UNL1        0.0206
     14 C         140.4432  139.6471  165.1379 C.ar    1  UNL1        0.0374
     15 C         138.9871  139.9356  165.3531 C.ar    1  UNL1        0.0031
     16 C         138.0882  140.1766  164.1767 C.ar    1  UNL1        0.0016
     17 C         138.6455  140.1291  162.7850 C.ar    1  UNL1        0.0191
     18 C         140.1017  139.8406  162.5696 C.ar    1  UNL1        0.0810
     19 N         140.6590  139.7931  161.1777 N.ar    1  UNL1       -0.2497
     20 C         142.7927  141.7453  170.1542 C.3     1  UNL1        0.0294
     21 C         141.8411  142.6802  169.4685 C.3     1  UNL1        0.0730
     22 N         141.8385  142.7832  167.9720 N.3     1  UNL1       -0.2720
     23 C         140.5185  143.1229  167.3455 C.3     1  UNL1        0.0768
     24 C         140.1902  143.2961  165.8920 C.3     1  UNL1        0.0434
     25 C         141.1006  143.1726  164.7065 C.ar    1  UNL1       -0.0216
     26 C         140.3664  143.4255  163.4230 C.ar    1  UNL1        0.0337
     27 C         141.0959  143.3510  162.1145 C.ar    1  UNL1        0.1525
     28 C         142.5595  143.0236  162.0892 C.ar    1  UNL1        0.0878
     29 C         143.2937  142.7707  163.3726 C.ar    1  UNL1        0.0135
     30 C         142.5642  142.8452  164.6812 C.ar    1  UNL1       -0.0233
     31 C         143.4789  142.5605  165.8355 C.3     1  UNL1        0.0434
     32 C         143.1558  142.5330  167.3000 C.3     1  UNL1        0.0768
     33 N         143.2890  142.9491  160.7807 N.am    1  UNL1       -0.2512
     34 C         144.7526  142.6217  160.7555 C.3     1  UNL1        0.1202
     35 C         142.5548  143.2020  159.4974 C.2     1  UNL1        0.2740
     36 O         143.2842  143.1275  158.1888 O.2     1  UNL1       -0.2705
     37 C         141.0911  143.5294  159.5225 C.3     1  UNL1        0.2900
     38 O         140.3617  143.6039  160.8311 O.3     1  UNL1       -0.4643
@<TRIPOS>BOND
     1     9    10    1
     2    10    11   ar
     3    11    12   ar
     4    12    13   ar
     5    13    14   ar
     6    14     3    1
     7     3     4   ar
     8     4     5   ar
     9     5     6   ar
    10     6     2    1
    11     2     1    1
    12     1    20    1
    13    20    21    1
    14    21    22    1
    15    22    23    1
    16    23    24    1
    17    24    25    1
    18    25    26   ar
    19    26    27   ar
    20    27    28   ar
    21    28    29   ar
    22    29    30   ar
    23    30    31    1
    24    31    32    1
    25    28    33    1
    26    33    34    1
    27    33    35   am
    28    35    36    2
    29    35    37    1
    30    37    38    1
    31     6     7   ar
    32     7     8    1
    33    14    15   ar
    34    15    16   ar
    35    16    17   ar
    36    17    18   ar
    37    18    19   ar
    38    19    10   ar
    39    18    13   ar
    40     7     3   ar
    41    32    22    1
    42    30    25   ar
    43    38    27    1
