@<TRIPOS>MOLECULE
*****
 34 37 0 0 0
SMALL
GASTEIGER

@<TRIPOS>ATOM
      1 N         142.1553  137.0647  157.1836 N.3     1  UNL1       -0.2688
      2 C         140.7588  137.3178  156.6984 C.3     1  UNL1        0.0741
      3 C         139.8184  138.1489  157.5200 C.3     1  UNL1        0.0370
      4 C         140.2746  138.7269  158.8268 C.3     1  UNL1        0.0760
      5 C         141.6713  138.4738  159.3120 C.3     1  UNL1        0.0370
      6 C         142.6116  137.6427  158.4904 C.3     1  UNL1        0.0741
      7 N         139.3343  139.5580  159.6484 N.pl3   1  UNL1       -0.2899
      8 H         138.7361  140.2045  159.2085 H       1  UNL1        0.1511
      9 C         139.3054  139.4042  161.1402 C.ar    1  UNL1        0.2890
     10 N         139.7198  140.4412  162.1417 N.ar    1  UNL1       -0.1948
     11 C         139.5275  139.8644  163.5129 C.ar    1  UNL1        0.1214
     12 C         139.7691  140.4279  164.8818 C.ar    1  UNL1        0.0407
     13 C         139.4775  139.5980  166.0968 C.ar    1  UNL1        0.1074
     14 C         138.9443  138.2044  165.9428 C.ar    1  UNL1        0.0216
     15 C         138.7028  137.6408  164.5739 C.ar    1  UNL1        0.0405
     16 C         138.9944  138.4708  163.3589 C.ar    1  UNL1        0.1661
     17 O         138.8571  138.1864  161.8925 O.2     1  UNL1       -0.4239
     18 S         139.7191  140.1616  167.4658 S.O2    1  UNL1        0.0087
     19 O         138.6054  139.3169  168.0100 O.2     1  UNL1       -0.1686
     20 O         140.8327  141.0063  166.9215 O.2     1  UNL1       -0.1686
     21 C         139.9606  140.7251  168.8347 C.3     1  UNL1        0.1560
     22 C         138.9695  140.4781  169.9332 C.3     1  UNL1        0.0276
     23 C         143.0957  136.2336  156.3620 C.3     1  UNL1        0.0992
     24 C         141.8234  132.5380  155.6740 C.ar    1  UNL1        0.1719
     25 C         141.9174  134.0346  155.6370 C.ar    1  UNL1        0.0371
     26 C         143.0017  134.7370  156.3991 C.ar    1  UNL1       -0.0029
     27 C         143.9920  133.9429  157.1982 C.ar    1  UNL1        0.0004
     28 C         143.8981  132.4463  157.2352 C.ar    1  UNL1        0.0398
     29 C         142.8137  131.7438  156.4731 C.ar    1  UNL1        0.1724
     30 O         142.7197  130.2472  156.5101 O.3     1  UNL1       -0.4684
     31 C         143.8382  129.4118  155.9616 C.3     1  UNL1        0.2526
     32 O         140.7390  131.8355  154.9119 O.3     1  UNL1       -0.4724
     33 C         142.2871  131.4858  152.8549 C.3     1  UNL1        0.0512
     34 C         140.9112  131.5560  153.4483 C.3     1  UNL1        0.2057
@<TRIPOS>BOND
     1    33    34    1
     2    34    32    1
     3    32    24    1
     4    24    25   ar
     5    25    26   ar
     6    26    23    1
     7    23     1    1
     8     1     2    1
     9     2     3    1
    10     3     4    1
    11     4     7    1
    12     7     9    1
    13     9    10   ar
    14    10    11   ar
    15    11    12   ar
    16    12    13   ar
    17    13    18    1
    18    18    19    2
    19    18    20    2
    20    18    21    1
    21    21    22    1
    22    13    14   ar
    23    14    15   ar
    24    15    16   ar
    25    16    17   ar
    26     4     5    1
    27     5     6    1
    28    26    27   ar
    29    27    28   ar
    30    28    29   ar
    31    29    30    1
    32    30    31    1
    33    29    24   ar
    34     6     1    1
    35    17     9   ar
    36    16    11   ar
    37     7     8    1
@<TRIPOS>MOLECULE
*****
 34 37 0 0 0
SMALL
GASTEIGER

@<TRIPOS>ATOM
      1 N         138.1098  139.9533  159.1042 N.3     1  UNL1       -0.2688
      2 C         137.2117  139.9084  160.3047 C.3     1  UNL1        0.0741
      3 C         137.5672  139.0405  161.4754 C.3     1  UNL1        0.0370
      4 C         138.8210  138.2176  161.4455 C.3     1  UNL1        0.0760
      5 C         139.7192  138.2626  160.2450 C.3     1  UNL1        0.0370
      6 C         139.3636  139.1304  159.0744 C.3     1  UNL1        0.0741
      7 N         139.1766  137.3498  162.6161 N.pl3   1  UNL1       -0.2899
      8 H         139.0220  136.3784  162.5737 H       1  UNL1        0.1511
      9 C         139.7678  137.9619  163.8514 C.ar    1  UNL1        0.2890
     10 N         139.0116  138.6882  164.9241 N.ar    1  UNL1       -0.1948
     11 C         139.9954  139.1303  165.9665 C.ar    1  UNL1        0.1214
     12 C         139.8253  139.8869  167.2504 C.ar    1  UNL1        0.0407
     13 C         141.0194  140.1905  168.1059 C.ar    1  UNL1        0.1074
     14 C         142.3836  139.7374  167.6775 C.ar    1  UNL1        0.0216
     15 C         142.5538  138.9808  166.3935 C.ar    1  UNL1        0.0405
     16 C         141.3597  138.6773  165.5380 C.ar    1  UNL1        0.1661
     17 O         141.2190  137.9551  164.2308 O.2     1  UNL1       -0.4239
     18 S         140.8493  140.9471  169.3899 S.O2    1  UNL1        0.0087
     19 O         139.9276  139.8782  169.8978 O.2     1  UNL1       -0.1686
     20 O         141.7709  142.0160  168.8821 O.2     1  UNL1       -0.1686
     21 C         140.6792  141.7037  170.6739 C.3     1  UNL1        0.1560
     22 C         139.7638  142.8908  170.7293 C.3     1  UNL1        0.0276
     23 C         137.7543  140.8212  157.9336 C.3     1  UNL1        0.0992
     24 C         139.8119  144.1368  158.6568 C.ar    1  UNL1        0.1719
     25 C         139.0894  142.8407  158.8764 C.ar    1  UNL1        0.0371
     26 C         138.4767  142.1173  157.7140 C.ar    1  UNL1       -0.0029
     27 C         138.5863  142.6899  156.3320 C.ar    1  UNL1        0.0004
     28 C         139.3088  143.9861  156.1123 C.ar    1  UNL1        0.0398
     29 C         139.9215  144.7095  157.2747 C.ar    1  UNL1        0.1724
     30 O         140.6440  146.0056  157.0551 O.3     1  UNL1       -0.4684
     31 C         142.1431  146.0433  157.0872 C.3     1  UNL1        0.2526
     32 O         140.4246  144.8602  159.8192 O.3     1  UNL1       -0.4724
     33 C         139.9735  145.7022  162.2353 C.3     1  UNL1        0.0512
     34 C         139.9199  144.6093  161.2092 C.3     1  UNL1        0.2057
@<TRIPOS>BOND
     1    33    34    1
     2    34    32    1
     3    32    24    1
     4    24    25   ar
     5    25    26   ar
     6    26    23    1
     7    23     1    1
     8     1     2    1
     9     2     3    1
    10     3     4    1
    11     4     7    1
    12     7     9    1
    13     9    10   ar
    14    10    11   ar
    15    11    12   ar
    16    12    13   ar
    17    13    18    1
    18    18    19    2
    19    18    20    2
    20    18    21    1
    21    21    22    1
    22    13    14   ar
    23    14    15   ar
    24    15    16   ar
    25    16    17   ar
    26     4     5    1
    27     5     6    1
    28    26    27   ar
    29    27    28   ar
    30    28    29   ar
    31    29    30    1
    32    30    31    1
    33    29    24   ar
    34     6     1    1
    35    17     9   ar
    36    16    11   ar
    37     7     8    1
@<TRIPOS>MOLECULE
*****
 34 37 0 0 0
SMALL
GASTEIGER

@<TRIPOS>ATOM
      1 N         138.6846  138.9646  164.4198 N.3     1  UNL1       -0.2688
      2 C         137.9939  139.9101  163.4823 C.3     1  UNL1        0.0741
      3 C         138.2086  139.7896  162.0026 C.3     1  UNL1        0.0370
      4 C         139.1140  138.7235  161.4605 C.3     1  UNL1        0.0760
      5 C         139.8046  137.7780  162.3981 C.3     1  UNL1        0.0370
      6 C         139.5899  137.8986  163.8778 C.3     1  UNL1        0.0741
      7 N         139.3287  138.6029  159.9809 N.pl3   1  UNL1       -0.2899
      8 H         139.6914  137.7696  159.6024 H       1  UNL1        0.1511
      9 C         138.9908  139.7520  159.0779 C.ar    1  UNL1        0.2890
     10 N         139.8742  140.9263  158.7770 N.ar    1  UNL1       -0.1948
     11 C         139.1396  141.8286  157.8303 C.ar    1  UNL1        0.1214
     12 C         139.5157  143.1320  157.1904 C.ar    1  UNL1        0.0407
     13 C         138.5543  143.8188  156.2663 C.ar    1  UNL1        0.1074
     14 C         137.2167  143.2021  155.9821 C.ar    1  UNL1        0.0216
     15 C         136.8406  141.8987  156.6221 C.ar    1  UNL1        0.0405
     16 C         137.8020  141.2119  157.5462 C.ar    1  UNL1        0.1661
     17 O         137.7101  139.9285  158.3172 O.2     1  UNL1       -0.4239
     18 S         138.9304  145.1223  155.6263 S.O2    1  UNL1        0.0087
     19 O         137.5657  145.2137  155.0104 O.2     1  UNL1       -0.1686
     20 O         140.2950  145.0308  156.2422 O.2     1  UNL1       -0.1686
     21 C         139.3065  146.4257  154.9864 C.3     1  UNL1        0.1560
     22 C         139.0598  147.7158  155.7109 C.3     1  UNL1        0.0276
     23 C         138.4698  139.0852  165.8995 C.3     1  UNL1        0.0992
     24 C         141.1824  141.8226  166.8471 C.ar    1  UNL1        0.1719
     25 C         140.3000  140.9244  166.0319 C.ar    1  UNL1        0.0371
     26 C         139.3523  139.9834  166.7147 C.ar    1  UNL1       -0.0029
     27 C         139.2870  139.9404  168.2126 C.ar    1  UNL1        0.0004
     28 C         140.1694  140.8386  169.0279 C.ar    1  UNL1        0.0398
     29 C         141.1172  141.7797  168.3451 C.ar    1  UNL1        0.1724
     30 O         141.9996  142.6779  169.1603 O.3     1  UNL1       -0.4684
     31 C         143.4118  142.2709  169.4599 C.3     1  UNL1        0.2526
     32 O         142.1302  142.7637  166.1644 O.3     1  UNL1       -0.4724
     33 C         144.4790  143.2315  165.1573 C.3     1  UNL1        0.0512
     34 C         143.4482  142.2615  165.6540 C.3     1  UNL1        0.2057
@<TRIPOS>BOND
     1    33    34    1
     2    34    32    1
     3    32    24    1
     4    24    25   ar
     5    25    26   ar
     6    26    23    1
     7    23     1    1
     8     1     2    1
     9     2     3    1
    10     3     4    1
    11     4     7    1
    12     7     9    1
    13     9    10   ar
    14    10    11   ar
    15    11    12   ar
    16    12    13   ar
    17    13    18    1
    18    18    19    2
    19    18    20    2
    20    18    21    1
    21    21    22    1
    22    13    14   ar
    23    14    15   ar
    24    15    16   ar
    25    16    17   ar
    26     4     5    1
    27     5     6    1
    28    26    27   ar
    29    27    28   ar
    30    28    29   ar
    31    29    30    1
    32    30    31    1
    33    29    24   ar
    34     6     1    1
    35    17     9   ar
    36    16    11   ar
    37     7     8    1
@<TRIPOS>MOLECULE
*****
 34 37 0 0 0
SMALL
GASTEIGER

@<TRIPOS>ATOM
      1 N         139.1187  138.9929  161.3107 N.3     1  UNL1       -0.2688
      2 C         138.7263  139.4320  159.9312 C.3     1  UNL1        0.0741
      3 C         139.6967  139.2941  158.7957 C.3     1  UNL1        0.0370
      4 C         141.0596  138.7170  159.0398 C.3     1  UNL1        0.0760
      5 C         141.4520  138.2779  160.4194 C.3     1  UNL1        0.0370
      6 C         140.4816  138.4159  161.5548 C.3     1  UNL1        0.0741
      7 N         142.0300  138.5791  157.9044 N.pl3   1  UNL1       -0.2899
      8 H         142.5316  139.3646  157.5874 H       1  UNL1        0.1511
      9 C         142.2361  137.2442  157.2519 C.ar    1  UNL1        0.2890
     10 N         143.2023  136.1859  157.6953 N.ar    1  UNL1       -0.1948
     11 C         143.0756  135.0209  156.7589 C.ar    1  UNL1        0.1214
     12 C         143.7763  133.6958  156.7050 C.ar    1  UNL1        0.0407
     13 C         143.4326  132.7090  155.6289 C.ar    1  UNL1        0.1074
     14 C         142.3882  133.0473  154.6068 C.ar    1  UNL1        0.0216
     15 C         141.6874  134.3724  154.6608 C.ar    1  UNL1        0.0405
     16 C         142.0311  135.3592  155.7369 C.ar    1  UNL1        0.1661
     17 O         141.5123  136.7333  156.0415 O.2     1  UNL1       -0.4239
     18 S         144.1334  131.3838  155.5749 S.O2    1  UNL1        0.0087
     19 O         142.9178  130.7664  154.9495 O.2     1  UNL1       -0.1686
     20 O         145.3490  132.0011  156.2002 O.2     1  UNL1       -0.1686
     21 C         144.8342  130.0587  155.5209 C.3     1  UNL1        0.1560
     22 C         144.8205  129.2540  154.2550 C.3     1  UNL1        0.0276
     23 C         138.1483  139.1309  162.4463 C.3     1  UNL1        0.0992
     24 C         139.6159  141.6425  165.1458 C.ar    1  UNL1        0.1719
     25 C         139.1578  141.0832  163.8316 C.ar    1  UNL1        0.0371
     26 C         138.6064  139.6901  163.7605 C.ar    1  UNL1       -0.0029
     27 C         138.5130  138.8562  165.0038 C.ar    1  UNL1        0.0004
     28 C         138.9710  139.4154  166.3182 C.ar    1  UNL1        0.0398
     29 C         139.5225  140.8085  166.3892 C.ar    1  UNL1        0.1724
     30 O         139.9805  141.3677  167.7035 O.3     1  UNL1       -0.4684
     31 C         140.0476  140.4827  168.9127 C.3     1  UNL1        0.2526
     32 O         140.1673  143.0356  165.2169 O.3     1  UNL1       -0.4724
     33 C         137.9440  144.3162  164.8084 C.3     1  UNL1        0.0512
     34 C         139.2569  144.1879  165.5223 C.3     1  UNL1        0.2057
@<TRIPOS>BOND
     1    33    34    1
     2    34    32    1
     3    32    24    1
     4    24    25   ar
     5    25    26   ar
     6    26    23    1
     7    23     1    1
     8     1     2    1
     9     2     3    1
    10     3     4    1
    11     4     7    1
    12     7     9    1
    13     9    10   ar
    14    10    11   ar
    15    11    12   ar
    16    12    13   ar
    17    13    18    1
    18    18    19    2
    19    18    20    2
    20    18    21    1
    21    21    22    1
    22    13    14   ar
    23    14    15   ar
    24    15    16   ar
    25    16    17   ar
    26     4     5    1
    27     5     6    1
    28    26    27   ar
    29    27    28   ar
    30    28    29   ar
    31    29    30    1
    32    30    31    1
    33    29    24   ar
    34     6     1    1
    35    17     9   ar
    36    16    11   ar
    37     7     8    1
@<TRIPOS>MOLECULE
*****
 34 37 0 0 0
SMALL
GASTEIGER

@<TRIPOS>ATOM
      1 N         142.1612  137.1630  156.8706 N.3     1  UNL1       -0.2688
      2 C         140.7511  137.3313  156.3875 C.3     1  UNL1        0.0741
      3 C         139.7559  138.0796  157.2240 C.3     1  UNL1        0.0370
      4 C         140.1708  138.6596  158.5436 C.3     1  UNL1        0.0760
      5 C         141.5810  138.4913  159.0267 C.3     1  UNL1        0.0370
      6 C         142.5761  137.7430  158.1902 C.3     1  UNL1        0.0741
      7 N         139.1757  139.4079  159.3801 N.pl3   1  UNL1       -0.2899
      8 H         138.5194  140.0024  158.9501 H       1  UNL1        0.1511
      9 C         139.1807  139.2503  160.8718 C.ar    1  UNL1        0.2890
     10 N         139.4723  140.3300  161.8715 N.ar    1  UNL1       -0.1948
     11 C         139.3667  139.7324  163.2433 C.ar    1  UNL1        0.1214
     12 C         139.5495  140.3204  164.6110 C.ar    1  UNL1        0.0407
     13 C         139.3753  139.4595  165.8269 C.ar    1  UNL1        0.1074
     14 C         139.0184  138.0105  165.6750 C.ar    1  UNL1        0.0216
     15 C         138.8356  137.4225  164.3073 C.ar    1  UNL1        0.0405
     16 C         139.0098  138.2834  163.0914 C.ar    1  UNL1        0.1661
     17 O         138.8948  137.9855  161.6258 O.2     1  UNL1       -0.4239
     18 S         139.5580  140.0475  167.1947 S.O2    1  UNL1        0.0087
     19 O         140.6113  140.9705  166.6573 O.2     1  UNL1       -0.1686
     20 O         138.5048  139.1246  167.7321 O.2     1  UNL1       -0.1686
     21 C         139.7407  140.6355  168.5625 C.3     1  UNL1        0.1560
     22 C         140.6443  139.9633  169.5533 C.3     1  UNL1        0.0276
     23 C         143.1563  136.4147  156.0341 C.3     1  UNL1        0.0992
     24 C         142.6180  132.4848  156.1594 C.ar    1  UNL1        0.1719
     25 C         142.9105  133.8899  156.5953 C.ar    1  UNL1        0.0371
     26 C         142.8639  135.0096  155.5982 C.ar    1  UNL1       -0.0029
     27 C         142.5248  134.7241  154.1652 C.ar    1  UNL1        0.0004
     28 C         142.2323  133.3189  153.7293 C.ar    1  UNL1        0.0398
     29 C         142.2789  132.1993  154.7264 C.ar    1  UNL1        0.1724
     30 O         141.9864  130.7941  154.2905 O.3     1  UNL1       -0.4684
     31 C         140.6187  130.2141  154.4972 C.3     1  UNL1        0.2526
     32 O         142.6647  131.3651  157.1565 O.3     1  UNL1       -0.4724
     33 C         145.1209  131.4327  158.0006 C.3     1  UNL1        0.0512
     34 C         143.9611  130.6653  157.4384 C.3     1  UNL1        0.2057
@<TRIPOS>BOND
     1    33    34    1
     2    34    32    1
     3    32    24    1
     4    24    25   ar
     5    25    26   ar
     6    26    23    1
     7    23     1    1
     8     1     2    1
     9     2     3    1
    10     3     4    1
    11     4     7    1
    12     7     9    1
    13     9    10   ar
    14    10    11   ar
    15    11    12   ar
    16    12    13   ar
    17    13    18    1
    18    18    19    2
    19    18    20    2
    20    18    21    1
    21    21    22    1
    22    13    14   ar
    23    14    15   ar
    24    15    16   ar
    25    16    17   ar
    26     4     5    1
    27     5     6    1
    28    26    27   ar
    29    27    28   ar
    30    28    29   ar
    31    29    30    1
    32    30    31    1
    33    29    24   ar
    34     6     1    1
    35    17     9   ar
    36    16    11   ar
    37     7     8    1
@<TRIPOS>MOLECULE
*****
 34 37 0 0 0
SMALL
GASTEIGER

@<TRIPOS>ATOM
      1 N         142.5930  140.1891  158.4178 N.3     1  UNL1       -0.2688
      2 C         141.2682  139.5067  158.5882 C.3     1  UNL1        0.0741
      3 C         141.0490  138.5715  159.7404 C.3     1  UNL1        0.0370
      4 C         142.1546  138.3187  160.7221 C.3     1  UNL1        0.0760
      5 C         143.4795  139.0012  160.5516 C.3     1  UNL1        0.0370
      6 C         143.6987  139.9364  159.3995 C.3     1  UNL1        0.0741
      7 N         141.9354  137.3836  161.8742 N.pl3   1  UNL1       -0.2899
      8 H         142.2223  136.4442  161.8072 H       1  UNL1        0.1511
      9 C         141.2791  137.8797  163.1285 C.ar    1  UNL1        0.2890
     10 N         141.9493  138.6447  164.2310 N.ar    1  UNL1       -0.1948
     11 C         140.9218  138.9357  165.2844 C.ar    1  UNL1        0.1214
     12 C         141.0060  139.6579  166.5963 C.ar    1  UNL1        0.0407
     13 C         139.7851  139.7949  167.4567 C.ar    1  UNL1        0.1074
     14 C         138.4798  139.2097  167.0052 C.ar    1  UNL1        0.0216
     15 C         138.3956  138.4874  165.6933 C.ar    1  UNL1        0.0405
     16 C         139.6165  138.3505  164.8328 C.ar    1  UNL1        0.1661
     17 O         139.8374  137.6978  163.5004 O.2     1  UNL1       -0.4239
     18 S         139.8693  140.5171  168.7688 S.O2    1  UNL1        0.0087
     19 O         138.6546  139.7815  169.2517 O.2     1  UNL1       -0.1686
     20 O         141.0840  141.2527  168.2858 O.2     1  UNL1       -0.1686
     21 C         139.9535  141.2393  170.0807 C.3     1  UNL1        0.1560
     22 C         139.9981  142.7384  170.1101 C.3     1  UNL1        0.0276
     23 C         142.8123  141.1243  157.2656 C.3     1  UNL1        0.0992
     24 C         141.5303  144.6673  158.5120 C.ar    1  UNL1        0.1719
     25 C         142.1753  143.3131  158.5120 C.ar    1  UNL1        0.0371
     26 C         142.1672  142.4785  157.2656 C.ar    1  UNL1       -0.0029
     27 C         141.5141  142.9981  156.0193 C.ar    1  UNL1        0.0004
     28 C         140.8690  144.3523  156.0192 C.ar    1  UNL1        0.0398
     29 C         140.8771  145.1869  157.2656 C.ar    1  UNL1        0.1724
     30 O         140.2321  146.5411  157.2656 O.3     1  UNL1       -0.4684
     31 C         139.1703  146.8660  156.2571 C.3     1  UNL1        0.2526
     32 O         141.5383  145.5019  159.7583 O.3     1  UNL1       -0.4724
     33 C         140.7125  145.2838  162.2120 C.3     1  UNL1        0.0512
     34 C         140.4148  145.3866  160.7454 C.3     1  UNL1        0.2057
@<TRIPOS>BOND
     1    33    34    1
     2    34    32    1
     3    32    24    1
     4    24    25   ar
     5    25    26   ar
     6    26    23    1
     7    23     1    1
     8     1     2    1
     9     2     3    1
    10     3     4    1
    11     4     7    1
    12     7     9    1
    13     9    10   ar
    14    10    11   ar
    15    11    12   ar
    16    12    13   ar
    17    13    18    1
    18    18    19    2
    19    18    20    2
    20    18    21    1
    21    21    22    1
    22    13    14   ar
    23    14    15   ar
    24    15    16   ar
    25    16    17   ar
    26     4     5    1
    27     5     6    1
    28    26    27   ar
    29    27    28   ar
    30    28    29   ar
    31    29    30    1
    32    30    31    1
    33    29    24   ar
    34     6     1    1
    35    17     9   ar
    36    16    11   ar
    37     7     8    1
@<TRIPOS>MOLECULE
*****
 34 37 0 0 0
SMALL
GASTEIGER

@<TRIPOS>ATOM
      1 N         144.1504  139.3337  162.1017 N.3     1  UNL1       -0.2688
      2 C         144.1245  140.4144  161.0619 C.3     1  UNL1        0.0741
      3 C         143.4655  140.1654  159.7375 C.3     1  UNL1        0.0370
      4 C         142.8326  138.8356  159.4530 C.3     1  UNL1        0.0760
      5 C         142.8586  137.7548  160.4929 C.3     1  UNL1        0.0370
      6 C         143.5175  138.0038  161.8172 C.3     1  UNL1        0.0741
      7 N         142.1737  138.5865  158.1288 N.pl3   1  UNL1       -0.2899
      8 H         141.6573  139.3028  157.6935 H       1  UNL1        0.1511
      9 C         142.3016  137.2462  157.4677 C.ar    1  UNL1        0.2890
     10 N         143.3652  136.2250  157.7434 N.ar    1  UNL1       -0.1948
     11 C         143.1093  135.0393  156.8609 C.ar    1  UNL1        0.1214
     12 C         143.8310  133.7344  156.6990 C.ar    1  UNL1        0.0407
     13 C         143.3309  132.7178  155.7159 C.ar    1  UNL1        0.1074
     14 C         142.1092  133.0062  154.8948 C.ar    1  UNL1        0.0216
     15 C         141.3876  134.3111  155.0567 C.ar    1  UNL1        0.0405
     16 C         141.8876  135.3277  156.0398 C.ar    1  UNL1        0.1661
     17 O         141.3885  136.6916  156.4148 O.2     1  UNL1       -0.4239
     18 S         144.0526  131.4127  155.5539 S.O2    1  UNL1        0.0087
     19 O         145.2914  132.0254  156.1369 O.2     1  UNL1       -0.1686
     20 O         142.8137  130.8001  154.9709 O.2     1  UNL1       -0.1686
     21 C         144.7741  130.1078  155.3919 C.3     1  UNL1        0.1560
     22 C         144.6560  129.0492  156.4482 C.3     1  UNL1        0.0276
     23 C         144.8093  139.5827  163.4261 C.3     1  UNL1        0.0992
     24 C         142.4599  141.2450  166.1585 C.ar    1  UNL1        0.1719
     25 C         143.2963  141.0698  164.9258 C.ar    1  UNL1        0.0371
     26 C         143.9729  139.7579  164.6588 C.ar    1  UNL1       -0.0029
     27 C         143.8130  138.6213  165.6244 C.ar    1  UNL1        0.0004
     28 C         142.9765  138.7966  166.8572 C.ar    1  UNL1        0.0398
     29 C         142.2999  140.1084  167.1242 C.ar    1  UNL1        0.1724
     30 O         141.4635  140.2837  168.3569 O.3     1  UNL1       -0.4684
     31 C         142.0747  140.8512  169.6036 C.3     1  UNL1        0.2526
     32 O         141.7833  142.5569  166.4255 O.3     1  UNL1       -0.4724
     33 C         139.5522  143.4367  165.4265 C.3     1  UNL1        0.0512
     34 C         141.0376  143.2536  165.3263 C.3     1  UNL1        0.2057
@<TRIPOS>BOND
     1    33    34    1
     2    34    32    1
     3    32    24    1
     4    24    25   ar
     5    25    26   ar
     6    26    23    1
     7    23     1    1
     8     1     2    1
     9     2     3    1
    10     3     4    1
    11     4     7    1
    12     7     9    1
    13     9    10   ar
    14    10    11   ar
    15    11    12   ar
    16    12    13   ar
    17    13    18    1
    18    18    19    2
    19    18    20    2
    20    18    21    1
    21    21    22    1
    22    13    14   ar
    23    14    15   ar
    24    15    16   ar
    25    16    17   ar
    26     4     5    1
    27     5     6    1
    28    26    27   ar
    29    27    28   ar
    30    28    29   ar
    31    29    30    1
    32    30    31    1
    33    29    24   ar
    34     6     1    1
    35    17     9   ar
    36    16    11   ar
    37     7     8    1
@<TRIPOS>MOLECULE
*****
 34 37 0 0 0
SMALL
GASTEIGER

@<TRIPOS>ATOM
      1 N         139.0514  140.1936  162.2916 N.3     1  UNL1       -0.2688
      2 C         139.6233  138.8516  161.9426 C.3     1  UNL1        0.0741
      3 C         140.5883  138.7213  160.8016 C.3     1  UNL1        0.0370
      4 C         140.9813  139.9330  160.0096 C.3     1  UNL1        0.0760
      5 C         140.4093  141.2751  160.3587 C.3     1  UNL1        0.0370
      6 C         139.4444  141.4054  161.4997 C.3     1  UNL1        0.0741
      7 N         141.9462  139.8028  158.8686 N.pl3   1  UNL1       -0.2899
      8 H         142.5641  140.5402  158.6599 H       1  UNL1        0.1511
      9 C         141.9696  138.5490  158.0455 C.ar    1  UNL1        0.2890
     10 N         142.9647  137.4331  158.1668 N.ar    1  UNL1       -0.1948
     11 C         142.6121  136.3854  157.1529 C.ar    1  UNL1        0.1214
     12 C         143.2389  135.0654  156.8141 C.ar    1  UNL1        0.0407
     13 C         142.6527  134.2138  155.7274 C.ar    1  UNL1        0.1074
     14 C         141.4397  134.6821  154.9795 C.ar    1  UNL1        0.0216
     15 C         140.8129  136.0020  155.3183 C.ar    1  UNL1        0.0405
     16 C         141.3991  136.8537  156.4050 C.ar    1  UNL1        0.1661
     17 O         141.0021  138.1908  156.9567 O.2     1  UNL1       -0.4239
     18 S         143.2794  132.8937  155.3886 S.O2    1  UNL1        0.0087
     19 O         142.6302  132.9324  154.0369 O.2     1  UNL1       -0.1686
     20 O         143.9286  132.8551  156.7402 O.2     1  UNL1       -0.1686
     21 C         143.9062  131.5738  155.0498 C.3     1  UNL1        0.1560
     22 C         144.8957  130.9502  155.9890 C.3     1  UNL1        0.0276
     23 C         138.0864  140.3239  163.4327 C.3     1  UNL1        0.0992
     24 C         140.0534  141.2547  166.7515 C.ar    1  UNL1        0.1719
     25 C         139.5546  141.3062  165.3378 C.ar    1  UNL1        0.0371
     26 C         138.5852  140.2724  164.8464 C.ar    1  UNL1       -0.0029
     27 C         138.1146  139.1871  165.7686 C.ar    1  UNL1        0.0004
     28 C         138.6134  139.1355  167.1824 C.ar    1  UNL1        0.0398
     29 C         139.5828  140.1693  167.6738 C.ar    1  UNL1        0.1724
     30 O         140.0816  140.1178  169.0875 O.3     1  UNL1       -0.4684
     31 C         139.1902  140.5504  170.2135 C.3     1  UNL1        0.2526
     32 O         141.0229  142.2884  167.2429 O.3     1  UNL1       -0.4724
     33 C         142.9909  140.9381  166.2165 C.3     1  UNL1        0.0512
     34 C         142.4827  142.1599  166.9230 C.3     1  UNL1        0.2057
@<TRIPOS>BOND
     1    33    34    1
     2    34    32    1
     3    32    24    1
     4    24    25   ar
     5    25    26   ar
     6    26    23    1
     7    23     1    1
     8     1     2    1
     9     2     3    1
    10     3     4    1
    11     4     7    1
    12     7     9    1
    13     9    10   ar
    14    10    11   ar
    15    11    12   ar
    16    12    13   ar
    17    13    18    1
    18    18    19    2
    19    18    20    2
    20    18    21    1
    21    21    22    1
    22    13    14   ar
    23    14    15   ar
    24    15    16   ar
    25    16    17   ar
    26     4     5    1
    27     5     6    1
    28    26    27   ar
    29    27    28   ar
    30    28    29   ar
    31    29    30    1
    32    30    31    1
    33    29    24   ar
    34     6     1    1
    35    17     9   ar
    36    16    11   ar
    37     7     8    1
@<TRIPOS>MOLECULE
*****
 34 37 0 0 0
SMALL
GASTEIGER

@<TRIPOS>ATOM
      1 N         142.0416  138.7509  159.4266 N.3     1  UNL1       -0.2688
      2 C         141.6467  137.9986  160.6627 C.3     1  UNL1        0.0741
      3 C         142.4904  138.0922  161.8994 C.3     1  UNL1        0.0370
      4 C         143.7290  138.9382  161.9000 C.3     1  UNL1        0.0760
      5 C         144.1240  139.6906  160.6638 C.3     1  UNL1        0.0370
      6 C         143.2803  139.5969  159.4272 C.3     1  UNL1        0.0741
      7 N         144.5727  139.0319  163.1366 N.pl3   1  UNL1       -0.2899
      8 H         145.5428  138.8723  163.0840 H       1  UNL1        0.1511
      9 C         143.9385  139.3687  164.4536 C.ar    1  UNL1        0.2890
     10 N         143.1589  140.6119  164.7644 N.ar    1  UNL1       -0.1948
     11 C         142.7110  140.5330  166.1938 C.ar    1  UNL1        0.1214
     12 C         141.9104  141.4706  167.0480 C.ar    1  UNL1        0.0407
     13 C         141.6125  141.1163  168.4748 C.ar    1  UNL1        0.1074
     14 C         142.1153  139.8243  169.0473 C.ar    1  UNL1        0.0216
     15 C         142.9160  138.8866  168.1932 C.ar    1  UNL1        0.0405
     16 C         143.2138  139.2409  166.7664 C.ar    1  UNL1        0.1661
     17 O         143.9724  138.5214  165.6909 O.2     1  UNL1       -0.4239
     18 S         140.8118  142.0540  169.3290 S.O2    1  UNL1        0.0087
     19 O         140.5794  142.9386  168.1402 O.2     1  UNL1       -0.1686
     20 O         141.0442  141.1693  170.5178 O.2     1  UNL1       -0.1686
     21 C         140.0111  142.9916  170.1833 C.3     1  UNL1        0.1560
     22 C         140.2996  144.4634  170.1552 C.3     1  UNL1        0.0276
     23 C         141.1979  138.6573  158.1899 C.3     1  UNL1        0.0992
     24 C         142.8500  135.5517  156.3525 C.ar    1  UNL1        0.1719
     25 C         142.6380  136.6768  157.3216 C.ar    1  UNL1        0.0371
     26 C         141.4099  137.5322  157.2207 C.ar    1  UNL1       -0.0029
     27 C         140.3940  137.2626  156.1507 C.ar    1  UNL1        0.0004
     28 C         140.6060  136.1375  155.1814 C.ar    1  UNL1        0.0398
     29 C         141.8340  135.2821  155.2823 C.ar    1  UNL1        0.1724
     30 O         142.0460  134.1571  154.3132 O.3     1  UNL1       -0.4684
     31 C         141.1907  132.9274  154.3927 C.3     1  UNL1        0.2526
     32 O         144.0780  134.6963  156.4534 O.3     1  UNL1       -0.4724
     33 C         143.3525  132.2975  157.1384 C.3     1  UNL1        0.0512
     34 C         144.1189  133.5546  157.4253 C.3     1  UNL1        0.2057
@<TRIPOS>BOND
     1    33    34    1
     2    34    32    1
     3    32    24    1
     4    24    25   ar
     5    25    26   ar
     6    26    23    1
     7    23     1    1
     8     1     2    1
     9     2     3    1
    10     3     4    1
    11     4     7    1
    12     7     9    1
    13     9    10   ar
    14    10    11   ar
    15    11    12   ar
    16    12    13   ar
    17    13    18    1
    18    18    19    2
    19    18    20    2
    20    18    21    1
    21    21    22    1
    22    13    14   ar
    23    14    15   ar
    24    15    16   ar
    25    16    17   ar
    26     4     5    1
    27     5     6    1
    28    26    27   ar
    29    27    28   ar
    30    28    29   ar
    31    29    30    1
    32    30    31    1
    33    29    24   ar
    34     6     1    1
    35    17     9   ar
    36    16    11   ar
    37     7     8    1
