@<TRIPOS>MOLECULE
*****
 30 34 0 0 0
SMALL
GASTEIGER

@<TRIPOS>ATOM
      1 O         137.9652  138.6773  166.1677 O.3     1  UNL1       -0.4602
      2 C         142.6089  140.9581  169.0520 C.3     1  UNL1        0.1305
      3 N         141.5457  141.0913  168.0022 N.ar    1  UNL1       -0.3228
      4 C         140.5067  140.0636  167.6643 C.ar    1  UNL1        0.0806
      5 C         139.6538  140.6126  166.5593 C.ar    1  UNL1        0.0718
      6 C         138.4771  140.0444  165.8226 C.ar    1  UNL1        0.2262
      7 N         137.8124  140.8432  164.7410 N.ar    1  UNL1       -0.2116
      8 C         138.3244  142.2104  164.3959 C.ar    1  UNL1        0.0844
      9 C         137.6597  143.0092  163.3143 C.ar    1  UNL1        0.0192
     10 C         138.1716  144.3762  162.9693 C.ar    1  UNL1        0.0015
     11 C         139.3483  144.9444  163.7059 C.ar    1  UNL1        0.0001
     12 C         140.0130  144.1456  164.7875 C.ar    1  UNL1        0.0015
     13 C         139.5010  142.7786  165.1325 C.ar    1  UNL1        0.0194
     14 C         140.1657  141.9797  166.2142 C.ar    1  UNL1        0.0246
     15 C         141.3350  142.2755  167.1060 C.ar    1  UNL1        0.0762
     16 C         138.5285  137.4696  165.4790 C.3     1  UNL1        0.2071
     17 C         139.5249  137.6352  164.3701 C.3     1  UNL1        0.0466
     18 C         140.9937  137.6268  164.6743 C.3     1  UNL1        0.0211
     19 C         141.9902  137.7924  163.5654 C.3     1  UNL1        0.0723
     20 N         141.5179  137.9663  162.1524 N.3     1  UNL1       -0.2715
     21 C         140.0490  137.9747  161.8482 C.3     1  UNL1        0.0723
     22 C         139.0526  137.8091  162.9571 C.3     1  UNL1        0.0211
     23 C         142.5143  138.1319  161.0435 C.3     1  UNL1        0.0896
     24 C         143.9256  138.5318  161.3569 C.3     1  UNL1        0.0898
     25 N         144.2410  139.9552  161.7098 N.3     1  UNL1       -0.2672
     26 C         143.9894  141.0482  160.7138 C.3     1  UNL1        0.1047
     27 C         144.3048  142.4717  161.0667 C.3     1  UNL1        0.1595
     28 O         144.8718  142.8020  162.4155 O.3     1  UNL1       -0.3508
     29 C         145.1234  141.7089  163.4115 C.3     1  UNL1        0.1595
     30 C         144.8080  140.2856  163.0586 C.3     1  UNL1        0.1047
@<TRIPOS>BOND
     1     2     3    1
     2     3     4   ar
     3     4     5   ar
     4     5     6   ar
     5     6     1    1
     6     1    16    1
     7    16    17    1
     8    17    18    1
     9    18    19    1
    10    19    20    1
    11    20    23    1
    12    23    24    1
    13    24    25    1
    14    25    26    1
    15    26    27    1
    16    27    28    1
    17    28    29    1
    18    29    30    1
    19    20    21    1
    20    21    22    1
    21     6     7   ar
    22     7     8   ar
    23     8     9   ar
    24     9    10   ar
    25    10    11   ar
    26    11    12   ar
    27    12    13   ar
    28    13    14   ar
    29    14    15   ar
    30    15     3   ar
    31    14     5   ar
    32    22    17    1
    33    13     8   ar
    34    30    25    1
@<TRIPOS>MOLECULE
*****
 30 34 0 0 0
SMALL
GASTEIGER

@<TRIPOS>ATOM
      1 O         137.9293  138.6778  166.1282 O.3     1  UNL1       -0.4602
      2 C         140.2045  143.2848  163.1813 C.3     1  UNL1        0.1305
      3 N         140.0352  142.5260  164.4642 N.ar    1  UNL1       -0.3228
      4 C         139.2485  141.2615  164.6434 C.ar    1  UNL1        0.0806
      5 C         139.3500  140.8526  166.0830 C.ar    1  UNL1        0.0718
      6 C         138.7787  139.6896  166.8387 C.ar    1  UNL1        0.2262
      7 N         139.0568  139.5384  168.3049 N.ar    1  UNL1       -0.2116
      8 C         139.9062  140.5502  169.0155 C.ar    1  UNL1        0.0844
      9 C         140.1843  140.3990  170.4816 C.ar    1  UNL1        0.0192
     10 C         141.0337  141.4108  171.1921 C.ar    1  UNL1        0.0015
     11 C         141.6050  142.5738  170.4364 C.ar    1  UNL1        0.0001
     12 C         141.3269  142.7250  168.9702 C.ar    1  UNL1        0.0015
     13 C         140.4775  141.7132  168.2597 C.ar    1  UNL1        0.0194
     14 C         140.1994  141.8643  166.7935 C.ar    1  UNL1        0.0246
     15 C         140.6229  142.8986  165.7930 C.ar    1  UNL1        0.0762
     16 C         138.5640  137.4679  165.5091 C.3     1  UNL1        0.2071
     17 C         139.5373  137.6269  164.3789 C.3     1  UNL1        0.0466
     18 C         141.0121  137.6172  164.6522 C.3     1  UNL1        0.0211
     19 C         141.9855  137.7763  163.5220 C.3     1  UNL1        0.0723
     20 N         141.4839  137.9450  162.1184 N.3     1  UNL1       -0.2715
     21 C         140.0090  137.9547  161.8451 C.3     1  UNL1        0.0723
     22 C         139.0357  137.7957  162.9753 C.3     1  UNL1        0.0211
     23 C         142.4572  138.1041  160.9882 C.3     1  UNL1        0.0896
     24 C         143.8694  138.5250  161.2683 C.3     1  UNL1        0.0898
     25 N         144.1854  139.9694  161.5210 N.3     1  UNL1       -0.2672
     26 C         144.7757  140.3893  162.8345 C.3     1  UNL1        0.1047
     27 C         145.0917  141.8338  163.0872 C.3     1  UNL1        0.1595
     28 O         144.8174  142.8582  162.0265 O.3     1  UNL1       -0.3508
     29 C         144.2270  142.4383  160.7130 C.3     1  UNL1        0.1595
     30 C         143.9110  140.9939  160.4603 C.3     1  UNL1        0.1047
@<TRIPOS>BOND
     1     2     3    1
     2     3     4   ar
     3     4     5   ar
     4     5     6   ar
     5     6     1    1
     6     1    16    1
     7    16    17    1
     8    17    18    1
     9    18    19    1
    10    19    20    1
    11    20    23    1
    12    23    24    1
    13    24    25    1
    14    25    26    1
    15    26    27    1
    16    27    28    1
    17    28    29    1
    18    29    30    1
    19    20    21    1
    20    21    22    1
    21     6     7   ar
    22     7     8   ar
    23     8     9   ar
    24     9    10   ar
    25    10    11   ar
    26    11    12   ar
    27    12    13   ar
    28    13    14   ar
    29    14    15   ar
    30    15     3   ar
    31    14     5   ar
    32    22    17    1
    33    13     8   ar
    34    30    25    1
@<TRIPOS>MOLECULE
*****
 30 34 0 0 0
SMALL
GASTEIGER

@<TRIPOS>ATOM
      1 O         139.9113  144.7922  164.8757 O.3     1  UNL1       -0.4602
      2 C         139.6443  140.0569  168.4239 C.3     1  UNL1        0.1305
      3 N         140.3593  140.8388  167.3621 N.ar    1  UNL1       -0.3228
      4 C         139.9028  142.1370  166.7651 C.ar    1  UNL1        0.0806
      5 C         140.9177  142.5603  165.7449 C.ar    1  UNL1        0.0718
      6 C         140.9951  143.7557  164.8421 C.ar    1  UNL1        0.2262
      7 N         142.1561  143.9145  163.9059 N.ar    1  UNL1       -0.2116
      8 C         143.2399  142.8780  163.8723 C.ar    1  UNL1        0.0844
      9 C         144.4009  143.0368  162.9360 C.ar    1  UNL1        0.0192
     10 C         145.4846  142.0003  162.9025 C.ar    1  UNL1        0.0015
     11 C         145.4072  140.8049  163.8053 C.ar    1  UNL1        0.0001
     12 C         144.2462  140.6460  164.7416 C.ar    1  UNL1        0.0015
     13 C         143.1625  141.6826  164.7751 C.ar    1  UNL1        0.0194
     14 C         142.0014  141.5237  165.7114 C.ar    1  UNL1        0.0246
     15 C         141.6563  140.4598  166.7109 C.ar    1  UNL1        0.0762
     16 C         138.8128  144.7620  163.8548 C.3     1  UNL1        0.2071
     17 C         138.4930  143.4856  163.1347 C.3     1  UNL1        0.0466
     18 C         139.0159  143.2558  161.7477 C.3     1  UNL1        0.0211
     19 C         138.6961  141.9793  161.0276 C.3     1  UNL1        0.0723
     20 N         137.8535  140.9328  161.6944 N.3     1  UNL1       -0.2715
     21 C         137.3306  141.1627  163.0815 C.3     1  UNL1        0.0723
     22 C         137.6504  142.4391  163.8016 C.3     1  UNL1        0.0211
     23 C         137.5337  139.6564  160.9744 C.3     1  UNL1        0.0896
     24 C         137.7318  138.3379  161.6614 C.3     1  UNL1        0.0898
     25 N         139.0077  138.0613  162.4002 N.3     1  UNL1       -0.2672
     26 C         138.9811  137.8276  163.8816 C.3     1  UNL1        0.1047
     27 C         140.2570  137.5510  164.6203 C.3     1  UNL1        0.1595
     28 O         141.5595  137.5081  163.8776 O.3     1  UNL1       -0.3508
     29 C         141.5861  137.7419  162.3961 C.3     1  UNL1        0.1595
     30 C         140.3102  138.0184  161.6574 C.3     1  UNL1        0.1047
@<TRIPOS>BOND
     1     2     3    1
     2     3     4   ar
     3     4     5   ar
     4     5     6   ar
     5     6     1    1
     6     1    16    1
     7    16    17    1
     8    17    18    1
     9    18    19    1
    10    19    20    1
    11    20    23    1
    12    23    24    1
    13    24    25    1
    14    25    26    1
    15    26    27    1
    16    27    28    1
    17    28    29    1
    18    29    30    1
    19    20    21    1
    20    21    22    1
    21     6     7   ar
    22     7     8   ar
    23     8     9   ar
    24     9    10   ar
    25    10    11   ar
    26    11    12   ar
    27    12    13   ar
    28    13    14   ar
    29    14    15   ar
    30    15     3   ar
    31    14     5   ar
    32    22    17    1
    33    13     8   ar
    34    30    25    1
@<TRIPOS>MOLECULE
*****
 30 34 0 0 0
SMALL
GASTEIGER

@<TRIPOS>ATOM
      1 O         137.5869  143.6923  162.4034 O.3     1  UNL1       -0.4602
      2 C         139.1145  139.9784  158.0492 C.3     1  UNL1        0.1305
      3 N         138.8574  140.2277  159.5059 N.ar    1  UNL1       -0.3228
      4 C         138.4425  141.5332  160.1172 C.ar    1  UNL1        0.0806
      5 C         138.2986  141.3276  161.5960 C.ar    1  UNL1        0.0718
      6 C         137.9129  142.2598  162.7061 C.ar    1  UNL1        0.2262
      7 N         137.8532  141.7594  164.1189 N.ar    1  UNL1       -0.2116
      8 C         138.1792  140.3269  164.4217 C.ar    1  UNL1        0.0844
      9 C         138.1196  139.8265  165.8345 C.ar    1  UNL1        0.0192
     10 C         138.4456  138.3941  166.1372 C.ar    1  UNL1        0.0015
     11 C         138.8313  137.4619  165.0271 C.ar    1  UNL1        0.0001
     12 C         138.8910  137.9622  163.6143 C.ar    1  UNL1        0.0015
     13 C         138.5650  139.3947  163.3116 C.ar    1  UNL1        0.0194
     14 C         138.6246  139.8951  161.8987 C.ar    1  UNL1        0.0246
     15 C         138.9700  139.2153  160.6070 C.ar    1  UNL1        0.0762
     16 C         138.5522  144.7769  162.7800 C.3     1  UNL1        0.2071
     17 C         140.0291  144.5327  162.6850 C.3     1  UNL1        0.0466
     18 C         140.6802  144.3867  161.3417 C.3     1  UNL1        0.0211
     19 C         142.1572  144.1425  161.2466 C.3     1  UNL1        0.0723
     20 N         142.9830  144.0442  162.4950 N.3     1  UNL1       -0.2715
     21 C         142.3318  144.1902  163.8384 C.3     1  UNL1        0.0723
     22 C         140.8549  144.4344  163.9334 C.3     1  UNL1        0.0211
     23 C         144.4599  143.8000  162.4000 C.3     1  UNL1        0.0896
     24 C         144.9717  142.4639  161.9496 C.3     1  UNL1        0.0898
     25 N         144.4971  141.2120  162.6261 N.3     1  UNL1       -0.2672
     26 C         145.2564  140.6570  163.7945 C.3     1  UNL1        0.1047
     27 C         144.7819  139.4050  164.4710 C.3     1  UNL1        0.1595
     28 O         143.5480  138.7083  163.9791 O.3     1  UNL1       -0.3508
     29 C         142.7887  139.2634  162.8106 C.3     1  UNL1        0.1595
     30 C         143.2632  140.5153  162.1341 C.3     1  UNL1        0.1047
@<TRIPOS>BOND
     1     2     3    1
     2     3     4   ar
     3     4     5   ar
     4     5     6   ar
     5     6     1    1
     6     1    16    1
     7    16    17    1
     8    17    18    1
     9    18    19    1
    10    19    20    1
    11    20    23    1
    12    23    24    1
    13    24    25    1
    14    25    26    1
    15    26    27    1
    16    27    28    1
    17    28    29    1
    18    29    30    1
    19    20    21    1
    20    21    22    1
    21     6     7   ar
    22     7     8   ar
    23     8     9   ar
    24     9    10   ar
    25    10    11   ar
    26    11    12   ar
    27    12    13   ar
    28    13    14   ar
    29    14    15   ar
    30    15     3   ar
    31    14     5   ar
    32    22    17    1
    33    13     8   ar
    34    30    25    1
@<TRIPOS>MOLECULE
*****
 30 34 0 0 0
SMALL
GASTEIGER

@<TRIPOS>ATOM
      1 O         144.4798  141.0862  164.9856 O.3     1  UNL1       -0.4602
      2 C         142.4444  143.1821  170.1382 C.3     1  UNL1        0.1305
      3 N         142.2423  142.3376  168.9150 N.ar    1  UNL1       -0.3228
      4 C         143.2252  142.1565  167.7964 C.ar    1  UNL1        0.0806
      5 C         142.6122  141.2330  166.7858 C.ar    1  UNL1        0.0718
      6 C         143.1180  140.6966  165.4795 C.ar    1  UNL1        0.2262
      7 N         142.2622  139.7705  164.6672 N.ar    1  UNL1       -0.2116
      8 C         140.9004  139.3809  165.1611 C.ar    1  UNL1        0.0844
      9 C         140.0446  138.4549  164.3488 C.ar    1  UNL1        0.0192
     10 C         138.6829  138.0653  164.8427 C.ar    1  UNL1        0.0015
     11 C         138.1770  138.6018  166.1490 C.ar    1  UNL1        0.0001
     12 C         139.0329  139.5279  166.9613 C.ar    1  UNL1        0.0015
     13 C         140.3946  139.9174  166.4674 C.ar    1  UNL1        0.0194
     14 C         141.2505  140.8435  167.2797 C.ar    1  UNL1        0.0246
     15 C         141.0219  141.5261  168.5956 C.ar    1  UNL1        0.0762
     16 C         144.7256  142.4782  164.4837 C.3     1  UNL1        0.2071
     17 C         143.6183  143.2431  163.8214 C.3     1  UNL1        0.0466
     18 C         143.0754  144.4846  164.4647 C.3     1  UNL1        0.0211
     19 C         141.9680  145.2497  163.8024 C.3     1  UNL1        0.0723
     20 N         141.4036  144.7731  162.4969 N.3     1  UNL1       -0.2715
     21 C         141.9466  143.5315  161.8536 C.3     1  UNL1        0.0723
     22 C         143.0539  142.7666  162.5159 C.3     1  UNL1        0.0211
     23 C         140.2963  145.5381  161.8346 C.3     1  UNL1        0.0896
     24 C         138.8694  145.2687  162.2106 C.3     1  UNL1        0.0898
     25 N         138.4592  143.8991  162.6647 N.3     1  UNL1       -0.2672
     26 C         138.3397  143.5991  164.1295 C.3     1  UNL1        0.1047
     27 C         137.9295  142.2295  164.5836 C.3     1  UNL1        0.1595
     28 O         137.6388  141.1601  163.5728 O.3     1  UNL1       -0.3508
     29 C         137.7583  141.4601  162.1079 C.3     1  UNL1        0.1595
     30 C         138.1685  142.8296  161.6539 C.3     1  UNL1        0.1047
@<TRIPOS>BOND
     1     2     3    1
     2     3     4   ar
     3     4     5   ar
     4     5     6   ar
     5     6     1    1
     6     1    16    1
     7    16    17    1
     8    17    18    1
     9    18    19    1
    10    19    20    1
    11    20    23    1
    12    23    24    1
    13    24    25    1
    14    25    26    1
    15    26    27    1
    16    27    28    1
    17    28    29    1
    18    29    30    1
    19    20    21    1
    20    21    22    1
    21     6     7   ar
    22     7     8   ar
    23     8     9   ar
    24     9    10   ar
    25    10    11   ar
    26    11    12   ar
    27    12    13   ar
    28    13    14   ar
    29    14    15   ar
    30    15     3   ar
    31    14     5   ar
    32    22    17    1
    33    13     8   ar
    34    30    25    1
@<TRIPOS>MOLECULE
*****
 30 34 0 0 0
SMALL
GASTEIGER

@<TRIPOS>ATOM
      1 O         143.9225  138.6449  165.2432 O.3     1  UNL1       -0.4602
      2 C         138.4239  138.9370  163.0601 C.3     1  UNL1        0.1305
      3 N         139.3652  139.0854  164.2186 N.ar    1  UNL1       -0.3228
      4 C         140.8463  138.8501  164.1870 C.ar    1  UNL1        0.0806
      5 C         141.3870  139.1145  165.5610 C.ar    1  UNL1        0.0718
      6 C         142.7755  139.0436  166.1239 C.ar    1  UNL1        0.2262
      7 N         143.0172  139.3715  167.5675 N.ar    1  UNL1       -0.2116
      8 C         141.8703  139.7703  168.4483 C.ar    1  UNL1        0.0844
      9 C         142.1119  140.0982  169.8919 C.ar    1  UNL1        0.0192
     10 C         140.9650  140.4969  170.7725 C.ar    1  UNL1        0.0015
     11 C         139.5765  140.5677  170.2096 C.ar    1  UNL1        0.0001
     12 C         139.3348  140.2398  168.7660 C.ar    1  UNL1        0.0015
     13 C         140.4817  139.8411  167.8853 C.ar    1  UNL1        0.0194
     14 C         140.2401  139.5132  166.4416 C.ar    1  UNL1        0.0246
     15 C         138.9905  139.4952  165.6120 C.ar    1  UNL1        0.0762
     16 C         144.7403  139.6970  164.5545 C.3     1  UNL1        0.2071
     17 C         144.0877  140.9595  164.0748 C.3     1  UNL1        0.0466
     18 C         143.4220  140.9959  162.7311 C.3     1  UNL1        0.0211
     19 C         142.7694  142.2584  162.2513 C.3     1  UNL1        0.0723
     20 N         142.7825  143.4846  163.1153 N.3     1  UNL1       -0.2715
     21 C         143.4483  143.4481  164.4590 C.3     1  UNL1        0.0723
     22 C         144.1009  142.1856  164.9387 C.3     1  UNL1        0.0211
     23 C         142.1300  144.7471  162.6356 C.3     1  UNL1        0.0896
     24 C         140.7708  145.1283  163.1428 C.3     1  UNL1        0.0898
     25 N         139.6279  144.1643  163.0227 N.3     1  UNL1       -0.2672
     26 C         138.8956  143.7125  164.2513 C.3     1  UNL1        0.1047
     27 C         137.7526  142.7484  164.1312 C.3     1  UNL1        0.1595
     28 O         137.3420  142.2362  162.7825 O.3     1  UNL1       -0.3508
     29 C         138.0744  142.6881  161.5538 C.3     1  UNL1        0.1595
     30 C         139.2173  143.6521  161.6739 C.3     1  UNL1        0.1047
@<TRIPOS>BOND
     1     2     3    1
     2     3     4   ar
     3     4     5   ar
     4     5     6   ar
     5     6     1    1
     6     1    16    1
     7    16    17    1
     8    17    18    1
     9    18    19    1
    10    19    20    1
    11    20    23    1
    12    23    24    1
    13    24    25    1
    14    25    26    1
    15    26    27    1
    16    27    28    1
    17    28    29    1
    18    29    30    1
    19    20    21    1
    20    21    22    1
    21     6     7   ar
    22     7     8   ar
    23     8     9   ar
    24     9    10   ar
    25    10    11   ar
    26    11    12   ar
    27    12    13   ar
    28    13    14   ar
    29    14    15   ar
    30    15     3   ar
    31    14     5   ar
    32    22    17    1
    33    13     8   ar
    34    30    25    1
@<TRIPOS>MOLECULE
*****
 30 34 0 0 0
SMALL
GASTEIGER

@<TRIPOS>ATOM
      1 O         145.2728  142.5385  163.8127 O.3     1  UNL1       -0.4602
      2 C         144.2506  142.7006  157.9806 C.3     1  UNL1        0.1305
      3 N         143.7727  142.9272  159.3843 N.ar    1  UNL1       -0.3228
      4 C         144.5635  142.6827  160.6352 C.ar    1  UNL1        0.0806
      5 C         143.6996  143.0424  161.8075 C.ar    1  UNL1        0.0718
      6 C         143.9480  143.0053  163.2863 C.ar    1  UNL1        0.2262
      7 N         142.8717  143.4349  164.2386 N.ar    1  UNL1       -0.2116
      8 C         141.5469  143.9016  163.7122 C.ar    1  UNL1        0.0844
      9 C         140.4707  144.3312  164.6646 C.ar    1  UNL1        0.0192
     10 C         139.1459  144.7980  164.1381 C.ar    1  UNL1        0.0015
     11 C         138.8975  144.8352  162.6593 C.ar    1  UNL1        0.0001
     12 C         139.9737  144.4056  161.7069 C.ar    1  UNL1        0.0015
     13 C         141.2985  143.9388  162.2334 C.ar    1  UNL1        0.0194
     14 C         142.3748  143.5092  161.2810 C.ar    1  UNL1        0.0246
     15 C         142.4200  143.4380  159.7834 C.ar    1  UNL1        0.0762
     16 C         145.5615  141.0706  163.9217 C.3     1  UNL1        0.2071
     17 C         144.4375  140.0789  163.8645 C.3     1  UNL1        0.0466
     18 C         143.6877  139.7224  165.1137 C.3     1  UNL1        0.0211
     19 C         142.5636  138.7307  165.0566 C.3     1  UNL1        0.0723
     20 N         142.1895  138.0956  163.7502 N.3     1  UNL1       -0.2715
     21 C         142.9394  138.4521  162.5010 C.3     1  UNL1        0.0723
     22 C         144.0634  139.4438  162.5581 C.3     1  UNL1        0.0211
     23 C         141.0656  137.1039  163.6930 C.3     1  UNL1        0.0896
     24 C         139.7801  137.4659  163.0100 C.3     1  UNL1        0.0898
     25 N         139.1176  138.7789  163.3055 N.3     1  UNL1       -0.2672
     26 C         138.8466  139.1794  164.7254 C.3     1  UNL1        0.1047
     27 C         138.1841  140.4924  165.0209 C.3     1  UNL1        0.1595
     28 O         137.7926  141.4048  163.8965 O.3     1  UNL1       -0.3508
     29 C         138.0636  141.0042  162.4766 C.3     1  UNL1        0.1595
     30 C         138.7261  139.6913  162.1811 C.3     1  UNL1        0.1047
@<TRIPOS>BOND
     1     2     3    1
     2     3     4   ar
     3     4     5   ar
     4     5     6   ar
     5     6     1    1
     6     1    16    1
     7    16    17    1
     8    17    18    1
     9    18    19    1
    10    19    20    1
    11    20    23    1
    12    23    24    1
    13    24    25    1
    14    25    26    1
    15    26    27    1
    16    27    28    1
    17    28    29    1
    18    29    30    1
    19    20    21    1
    20    21    22    1
    21     6     7   ar
    22     7     8   ar
    23     8     9   ar
    24     9    10   ar
    25    10    11   ar
    26    11    12   ar
    27    12    13   ar
    28    13    14   ar
    29    14    15   ar
    30    15     3   ar
    31    14     5   ar
    32    22    17    1
    33    13     8   ar
    34    30    25    1
@<TRIPOS>MOLECULE
*****
 30 34 0 0 0
SMALL
GASTEIGER

@<TRIPOS>ATOM
      1 O         138.2250  144.4742  163.7850 O.3     1  UNL1       -0.4602
      2 C         137.6575  138.9351  161.7646 C.3     1  UNL1        0.1305
      3 N         138.1378  139.8828  162.8236 N.ar    1  UNL1       -0.3228
      4 C         137.9882  141.3752  162.8048 C.ar    1  UNL1        0.0806
      5 C         138.6099  141.9192  164.0568 C.ar    1  UNL1        0.0718
      6 C         138.7589  143.3179  164.5776 C.ar    1  UNL1        0.2262
      7 N         139.4418  143.5605  165.8909 N.ar    1  UNL1       -0.2116
      8 C         139.9757  142.4042  166.6835 C.ar    1  UNL1        0.0844
      9 C         140.6586  142.6468  167.9968 C.ar    1  UNL1        0.0192
     10 C         141.1924  141.4906  168.7893 C.ar    1  UNL1        0.0015
     11 C         141.0434  140.0918  168.2685 C.ar    1  UNL1        0.0001
     12 C         140.3606  139.8493  166.9552 C.ar    1  UNL1        0.0015
     13 C         139.8267  141.0055  166.1627 C.ar    1  UNL1        0.0194
     14 C         139.1438  140.7629  164.8493 C.ar    1  UNL1        0.0246
     15 C         138.8520  139.5044  164.0872 C.ar    1  UNL1        0.0762
     16 C         139.1480  145.2803  162.9199 C.3     1  UNL1        0.2071
     17 C         140.5492  144.8058  162.6722 C.3     1  UNL1        0.0466
     18 C         141.6659  145.2695  163.5599 C.3     1  UNL1        0.0211
     19 C         143.0672  144.7950  163.3122 C.3     1  UNL1        0.0723
     20 N         143.3517  143.8569  162.1769 N.3     1  UNL1       -0.2715
     21 C         142.2349  143.3933  161.2892 C.3     1  UNL1        0.0723
     22 C         140.8337  143.8678  161.5369 C.3     1  UNL1        0.0211
     23 C         144.7530  143.3824  161.9292 C.3     1  UNL1        0.0896
     24 C         145.0049  141.9529  161.5511 C.3     1  UNL1        0.0898
     25 N         144.5145  140.8454  162.4360 N.3     1  UNL1       -0.2672
     26 C         145.2022  140.5666  163.7395 C.3     1  UNL1        0.1047
     27 C         144.7118  139.4591  164.6245 C.3     1  UNL1        0.1595
     28 O         143.5336  138.6305  164.2058 O.3     1  UNL1       -0.3508
     29 C         142.8458  138.9094  162.9022 C.3     1  UNL1        0.1595
     30 C         143.3363  140.0168  162.0173 C.3     1  UNL1        0.1047
@<TRIPOS>BOND
     1     2     3    1
     2     3     4   ar
     3     4     5   ar
     4     5     6   ar
     5     6     1    1
     6     1    16    1
     7    16    17    1
     8    17    18    1
     9    18    19    1
    10    19    20    1
    11    20    23    1
    12    23    24    1
    13    24    25    1
    14    25    26    1
    15    26    27    1
    16    27    28    1
    17    28    29    1
    18    29    30    1
    19    20    21    1
    20    21    22    1
    21     6     7   ar
    22     7     8   ar
    23     8     9   ar
    24     9    10   ar
    25    10    11   ar
    26    11    12   ar
    27    12    13   ar
    28    13    14   ar
    29    14    15   ar
    30    15     3   ar
    31    14     5   ar
    32    22    17    1
    33    13     8   ar
    34    30    25    1
@<TRIPOS>MOLECULE
*****
 30 34 0 0 0
SMALL
GASTEIGER

@<TRIPOS>ATOM
      1 O         138.1323  144.2027  164.0227 O.3     1  UNL1       -0.4602
      2 C         141.2983  142.7467  168.8124 C.3     1  UNL1        0.1305
      3 N         140.6156  142.3394  167.5403 N.ar    1  UNL1       -0.3228
      4 C         139.8739  143.2499  166.6072 C.ar    1  UNL1        0.0806
      5 C         139.3547  142.4233  165.4682 C.ar    1  UNL1        0.0718
      6 C         138.5531  142.7813  164.2520 C.ar    1  UNL1        0.2262
      7 N         138.1722  141.7179  163.2651 N.ar    1  UNL1       -0.2116
      8 C         138.5930  140.2964  163.4943 C.ar    1  UNL1        0.0844
      9 C         138.2122  139.2330  162.5074 C.ar    1  UNL1        0.0192
     10 C         138.6330  137.8117  162.7367 C.ar    1  UNL1        0.0015
     11 C         139.4346  137.4537  163.9530 C.ar    1  UNL1        0.0001
     12 C         139.8155  138.5171  164.9399 C.ar    1  UNL1        0.0015
     13 C         139.3947  139.9385  164.7106 C.ar    1  UNL1        0.0194
     14 C         139.7755  141.0020  165.6976 C.ar    1  UNL1        0.0246
     15 C         140.5548  140.9501  166.9781 C.ar    1  UNL1        0.0762
     16 C         139.0567  145.1552  163.3240 C.3     1  UNL1        0.2071
     17 C         140.4562  144.7320  162.9888 C.3     1  UNL1        0.0466
     18 C         140.7292  143.9826  161.7185 C.3     1  UNL1        0.0211
     19 C         142.1287  143.5594  161.3832 C.3     1  UNL1        0.0723
     20 N         143.2552  143.8857  162.3184 N.3     1  UNL1       -0.2715
     21 C         142.9822  144.6353  163.5887 C.3     1  UNL1        0.0723
     22 C         141.5827  145.0584  163.9239 C.3     1  UNL1        0.0211
     23 C         144.6547  143.4626  161.9832 C.3     1  UNL1        0.0896
     24 C         144.9274  142.0549  161.5428 C.3     1  UNL1        0.0898
     25 N         144.4784  140.9030  162.3923 N.3     1  UNL1       -0.2672
     26 C         145.1701  140.6151  163.6918 C.3     1  UNL1        0.1047
     27 C         144.7211  139.4632  164.5414 C.3     1  UNL1        0.1595
     28 O         143.5805  138.5992  164.0913 O.3     1  UNL1       -0.3508
     29 C         142.8889  138.8871  162.7917 C.3     1  UNL1        0.1595
     30 C         143.3378  140.0390  161.9423 C.3     1  UNL1        0.1047
@<TRIPOS>BOND
     1     2     3    1
     2     3     4   ar
     3     4     5   ar
     4     5     6   ar
     5     6     1    1
     6     1    16    1
     7    16    17    1
     8    17    18    1
     9    18    19    1
    10    19    20    1
    11    20    23    1
    12    23    24    1
    13    24    25    1
    14    25    26    1
    15    26    27    1
    16    27    28    1
    17    28    29    1
    18    29    30    1
    19    20    21    1
    20    21    22    1
    21     6     7   ar
    22     7     8   ar
    23     8     9   ar
    24     9    10   ar
    25    10    11   ar
    26    11    12   ar
    27    12    13   ar
    28    13    14   ar
    29    14    15   ar
    30    15     3   ar
    31    14     5   ar
    32    22    17    1
    33    13     8   ar
    34    30    25    1
