@<TRIPOS>MOLECULE
*****
 38 42 0 0 0
SMALL
GASTEIGER

@<TRIPOS>ATOM
      1 C         139.4259  144.7938  164.7896 C.3     1  UNL1        0.0237
      2 C         140.2414  143.7635  164.0662 C.3     1  UNL1        0.0998
      3 N         140.8620  142.5422  164.6771 N.pl3   1  UNL1       -0.1923
      4 C         141.5837  141.7975  163.5933 C.ar    1  UNL1        0.0648
      5 C         142.3773  140.5247  163.6071 C.ar    1  UNL1        0.0160
      6 C         142.9963  140.0130  162.3402 C.ar    1  UNL1        0.0058
      7 C         142.8217  140.7741  161.0595 C.ar    1  UNL1        0.0531
      8 C         142.0281  142.0469  161.0456 C.ar    1  UNL1        0.0015
      9 C         141.4091  142.5586  162.3125 C.ar    1  UNL1       -0.0061
     10 C         140.5795  143.7737  162.6048 C.3     1  UNL1        0.0412
     11 C         140.9955  143.6499  161.1689 C.3     1  UNL1        0.0229
     12 C         140.5774  144.6921  160.1745 C.3     1  UNL1        0.0689
     13 N         139.7434  145.8581  160.6159 N.3     1  UNL1       -0.2974
     14 C         139.3274  145.9819  162.0517 C.3     1  UNL1        0.0689
     15 C         139.7455  144.9397  163.0461 C.3     1  UNL1        0.0229
     16 H         138.8870  145.8339  160.0623 H       1  UNL1        0.1232
     17 C         143.4407  140.2624  159.7926 C.2     1  UNL1        0.2461
     18 O         144.1314  138.9309  159.7799 O.2     1  UNL1       -0.2701
     19 N         143.3689  141.0821  158.5385 N.am    1  UNL1       -0.2969
     20 H         142.9156  141.9560  158.5468 H       1  UNL1        0.1501
     21 C         143.9879  140.5704  157.2716 C.3     1  UNL1        0.1174
     22 C         145.2713  141.1639  156.7709 C.ar    1  UNL1        0.0080
     23 C         145.9273  142.2800  157.5285 C.ar    1  UNL1       -0.0018
     24 C         147.2106  142.8736  157.0279 C.ar    1  UNL1       -0.0002
     25 C         147.8381  142.3510  155.7696 C.ar    1  UNL1        0.0008
     26 C         147.1821  141.2348  155.0120 C.ar    1  UNL1        0.0111
     27 C         145.8987  140.6413  155.5127 C.ar    1  UNL1        0.0553
     28 CL        145.2428  139.5251  154.7551 Cl      1  UNL1       -0.0825
     29 S         140.7760  142.1367  166.1186 S.O2    1  UNL1        0.0765
     30 O         142.1414  142.7086  166.3609 O.2     1  UNL1       -0.1497
     31 O         139.4106  141.5649  165.8763 O.2     1  UNL1       -0.1497
     32 C         140.6900  141.7313  167.5602 C.ar    1  UNL1        0.1256
     33 C         140.5070  142.7739  168.6229 C.ar    1  UNL1        0.0225
     34 C         140.4210  142.3685  170.0646 C.ar    1  UNL1        0.0310
     35 C         140.5181  140.9204  170.4435 C.ar    1  UNL1        0.1402
     36 F         140.4321  140.5149  171.8851 F       1  UNL1       -0.2042
     37 C         140.7011  139.8776  169.3807 C.ar    1  UNL1        0.0310
     38 C         140.7871  140.2831  167.9391 C.ar    1  UNL1        0.0225
@<TRIPOS>BOND
     1     1     2    1
     2     2     3    1
     3     3    29    1
     4    29    30    2
     5    29    31    2
     6    29    32    1
     7    32    33   ar
     8    33    34   ar
     9    34    35   ar
    10    35    36    1
    11    35    37   ar
    12    37    38   ar
    13     3     4    1
    14     4     5   ar
    15     5     6   ar
    16     6     7   ar
    17     7    17    1
    18    17    18    2
    19    17    19   am
    20    19    21    1
    21    21    22    1
    22    22    23   ar
    23    23    24   ar
    24    24    25   ar
    25    25    26   ar
    26    26    27   ar
    27    27    28    1
    28     7     8   ar
    29     8     9   ar
    30     9    10    1
    31    10    11    1
    32    11    12    1
    33    12    13    1
    34    13    14    1
    35    14    15    1
    36    10     2    1
    37    38    32   ar
    38     9     4   ar
    39    15    10    1
    40    27    22   ar
    41    19    20    1
    42    13    16    1
@<TRIPOS>MOLECULE
*****
 38 42 0 0 0
SMALL
GASTEIGER

@<TRIPOS>ATOM
      1 C         140.4881  144.4609  164.5662 C.3     1  UNL1        0.0237
      2 C         141.2779  143.5781  163.6460 C.3     1  UNL1        0.0998
      3 N         142.1262  142.4111  164.0564 N.pl3   1  UNL1       -0.1923
      4 C         142.7308  141.8191  162.8178 C.ar    1  UNL1        0.0648
      5 C         143.6521  140.6541  162.6088 C.ar    1  UNL1        0.0160
      6 C         144.0988  140.2902  161.2238 C.ar    1  UNL1        0.0058
      7 C         143.6241  141.0913  160.0479 C.ar    1  UNL1        0.0531
      8 C         142.7027  142.2564  160.2569 C.ar    1  UNL1        0.0015
      9 C         142.2560  142.6203  161.6418 C.ar    1  UNL1       -0.0061
     10 C         141.3581  143.7075  162.1536 C.3     1  UNL1        0.0412
     11 C         141.5339  143.7122  160.6640 C.3     1  UNL1        0.0229
     12 C         140.8384  144.7469  159.8301 C.3     1  UNL1        0.0689
     13 N         139.9671  145.7769  160.4857 N.3     1  UNL1       -0.2974
     14 C         139.7913  145.7722  161.9754 C.3     1  UNL1        0.0689
     15 C         140.4868  144.7375  162.8093 C.3     1  UNL1        0.0229
     16 H         139.0369  145.6776  160.0792 H       1  UNL1        0.1232
     17 C         144.0708  140.7275  158.6630 C.2     1  UNL1        0.2461
     18 O         143.7497  139.3735  158.1028 O.2     1  UNL1       -0.2701
     19 N         144.8386  141.7175  157.8382 N.am    1  UNL1       -0.2969
     20 H         145.0494  142.6061  158.2058 H       1  UNL1        0.1501
     21 C         145.2853  141.3536  156.4532 C.3     1  UNL1        0.1174
     22 C         145.6044  142.4319  155.4605 C.ar    1  UNL1        0.0080
     23 C         144.4973  143.1181  154.7167 C.ar    1  UNL1       -0.0018
     24 C         144.8163  144.1964  153.7240 C.ar    1  UNL1       -0.0002
     25 C         146.2426  144.5885  153.4751 C.ar    1  UNL1        0.0008
     26 C         147.3499  143.9023  154.2190 C.ar    1  UNL1        0.0111
     27 C         147.0307  142.8240  155.2117 C.ar    1  UNL1        0.0553
     28 CL        148.1379  142.1378  155.9556 Cl      1  UNL1       -0.0825
     29 S         142.3336  141.9220  165.4591 S.O2    1  UNL1        0.0765
     30 O         141.1083  141.0647  165.3413 O.2     1  UNL1       -0.1497
     31 O         143.5589  142.7792  165.5769 O.2     1  UNL1       -0.1497
     32 C         142.5409  141.4328  166.8619 C.ar    1  UNL1        0.1256
     33 C         143.0610  142.3679  167.9131 C.ar    1  UNL1        0.0225
     34 C         143.2684  141.8787  169.3158 C.ar    1  UNL1        0.0310
     35 C         142.9557  140.4544  169.6674 C.ar    1  UNL1        0.1402
     36 F         143.1630  139.9653  171.0702 F       1  UNL1       -0.2042
     37 C         142.4355  139.5193  168.6162 C.ar    1  UNL1        0.0310
     38 C         142.2282  140.0084  167.2134 C.ar    1  UNL1        0.0225
@<TRIPOS>BOND
     1     1     2    1
     2     2     3    1
     3     3    29    1
     4    29    30    2
     5    29    31    2
     6    29    32    1
     7    32    33   ar
     8    33    34   ar
     9    34    35   ar
    10    35    36    1
    11    35    37   ar
    12    37    38   ar
    13     3     4    1
    14     4     5   ar
    15     5     6   ar
    16     6     7   ar
    17     7    17    1
    18    17    18    2
    19    17    19   am
    20    19    21    1
    21    21    22    1
    22    22    23   ar
    23    23    24   ar
    24    24    25   ar
    25    25    26   ar
    26    26    27   ar
    27    27    28    1
    28     7     8   ar
    29     8     9   ar
    30     9    10    1
    31    10    11    1
    32    11    12    1
    33    12    13    1
    34    13    14    1
    35    14    15    1
    36    10     2    1
    37    38    32   ar
    38     9     4   ar
    39    15    10    1
    40    27    22   ar
    41    19    20    1
    42    13    16    1
@<TRIPOS>MOLECULE
*****
 38 42 0 0 0
SMALL
GASTEIGER

@<TRIPOS>ATOM
      1 C         143.9274  139.0636  163.6912 C.3     1  UNL1        0.0237
      2 C         143.1859  140.3170  163.3318 C.3     1  UNL1        0.0998
      3 N         142.5518  141.2739  164.2973 N.pl3   1  UNL1       -0.1923
      4 C         141.9224  142.3819  163.5060 C.ar    1  UNL1        0.0648
      5 C         141.1577  143.6034  163.9220 C.ar    1  UNL1        0.0160
      6 C         140.6381  144.5529  162.8834 C.ar    1  UNL1        0.0058
      7 C         140.8833  144.2808  161.4289 C.ar    1  UNL1        0.0531
      8 C         141.6479  143.0592  161.0128 C.ar    1  UNL1        0.0015
      9 C         142.1675  142.1098  162.0513 C.ar    1  UNL1       -0.0061
     10 C         142.9484  140.8336  161.9437 C.3     1  UNL1        0.0412
     11 C         142.6344  141.4701  160.6222 C.3     1  UNL1        0.0229
     12 C         143.0967  140.8239  159.3499 C.3     1  UNL1        0.0689
     13 N         143.8729  139.5413  159.3991 N.3     1  UNL1       -0.2974
     14 C         144.1868  138.9049  160.7205 C.3     1  UNL1        0.0689
     15 C         143.7246  139.5510  161.9928 C.3     1  UNL1        0.0229
     16 H         144.7654  139.7195  158.9386 H       1  UNL1        0.1232
     17 C         140.3637  145.2302  160.3903 C.2     1  UNL1        0.2461
     18 O         139.4218  146.3296  160.7832 O.2     1  UNL1       -0.2701
     19 N         140.7860  145.0803  158.9588 N.am    1  UNL1       -0.2969
     20 H         141.4042  144.3588  158.7009 H       1  UNL1        0.1501
     21 C         140.2665  146.0297  157.9202 C.3     1  UNL1        0.1174
     22 C         140.7804  145.9565  156.5129 C.ar    1  UNL1        0.0080
     23 C         141.9709  145.1019  156.1927 C.ar    1  UNL1       -0.0018
     24 C         142.4849  145.0286  154.7855 C.ar    1  UNL1       -0.0002
     25 C         141.8084  145.8099  153.6983 C.ar    1  UNL1        0.0008
     26 C         140.6179  146.6645  154.0184 C.ar    1  UNL1        0.0111
     27 C         140.1039  146.7378  155.4257 C.ar    1  UNL1        0.0553
     28 CL        138.9135  147.5923  155.7459 Cl      1  UNL1       -0.0825
     29 S         142.5478  141.1454  165.7917 S.O2    1  UNL1        0.0765
     30 O         143.7495  142.0396  165.8718 O.2     1  UNL1       -0.1497
     31 O         141.3462  140.2512  165.7116 O.2     1  UNL1       -0.1497
     32 C         142.5439  141.0169  167.2862 C.ar    1  UNL1        0.1256
     33 C         142.9894  142.1675  168.1391 C.ar    1  UNL1        0.0225
     34 C         142.9854  142.0390  169.6336 C.ar    1  UNL1        0.0310
     35 C         142.5359  140.7598  170.2752 C.ar    1  UNL1        0.1402
     36 F         142.5319  140.6313  171.7697 F       1  UNL1       -0.2042
     37 C         142.0904  139.6091  169.4223 C.ar    1  UNL1        0.0310
     38 C         142.0943  139.7376  167.9278 C.ar    1  UNL1        0.0225
@<TRIPOS>BOND
     1     1     2    1
     2     2     3    1
     3     3    29    1
     4    29    30    2
     5    29    31    2
     6    29    32    1
     7    32    33   ar
     8    33    34   ar
     9    34    35   ar
    10    35    36    1
    11    35    37   ar
    12    37    38   ar
    13     3     4    1
    14     4     5   ar
    15     5     6   ar
    16     6     7   ar
    17     7    17    1
    18    17    18    2
    19    17    19   am
    20    19    21    1
    21    21    22    1
    22    22    23   ar
    23    23    24   ar
    24    24    25   ar
    25    25    26   ar
    26    26    27   ar
    27    27    28    1
    28     7     8   ar
    29     8     9   ar
    30     9    10    1
    31    10    11    1
    32    11    12    1
    33    12    13    1
    34    13    14    1
    35    14    15    1
    36    10     2    1
    37    38    32   ar
    38     9     4   ar
    39    15    10    1
    40    27    22   ar
    41    19    20    1
    42    13    16    1
@<TRIPOS>MOLECULE
*****
 38 42 0 0 0
SMALL
GASTEIGER

@<TRIPOS>ATOM
      1 C         139.6560  138.9742  165.4035 C.3     1  UNL1        0.0237
      2 C         140.1553  139.9821  164.4111 C.3     1  UNL1        0.0998
      3 N         140.9211  141.2312  164.7324 N.pl3   1  UNL1       -0.1923
      4 C         141.2157  141.9389  163.4430 C.ar    1  UNL1        0.0648
      5 C         141.9399  143.2175  163.1426 C.ar    1  UNL1        0.0160
      6 C         142.0806  143.6845  161.7241 C.ar    1  UNL1        0.0058
      7 C         141.4968  142.8727  160.6060 C.ar    1  UNL1        0.0531
      8 C         140.7725  141.5939  160.9063 C.ar    1  UNL1        0.0015
      9 C         140.6319  141.1270  162.3248 C.ar    1  UNL1       -0.0061
     10 C         139.9766  139.9177  162.9231 C.3     1  UNL1        0.0412
     11 C         139.8769  139.9888  161.4282 C.3     1  UNL1        0.0229
     12 C         139.1675  138.9053  160.6715 C.3     1  UNL1        0.0689
     13 N         138.5576  137.7507  161.4097 N.3     1  UNL1       -0.2974
     14 C         138.6573  137.6796  162.9047 C.3     1  UNL1        0.0689
     15 C         139.3668  138.7631  163.6614 C.3     1  UNL1        0.0229
     16 H         138.9944  136.9042  161.0449 H       1  UNL1        0.1232
     17 C         141.6374  143.3396  159.1874 C.2     1  UNL1        0.2461
     18 O         142.6834  144.3544  158.8320 O.2     1  UNL1       -0.2701
     19 N         140.7321  142.7917  158.1243 N.am    1  UNL1       -0.2969
     20 H         140.0456  142.1257  158.3576 H       1  UNL1        0.1501
     21 C         140.8726  143.2586  156.7058 C.3     1  UNL1        0.1174
     22 C         140.0666  144.4254  156.2168 C.ar    1  UNL1        0.0080
     23 C         140.5729  145.8231  156.4166 C.ar    1  UNL1       -0.0018
     24 C         139.7670  146.9899  155.9277 C.ar    1  UNL1       -0.0002
     25 C         138.4546  146.7589  155.2389 C.ar    1  UNL1        0.0008
     26 C         137.9482  145.3611  155.0391 C.ar    1  UNL1        0.0111
     27 C         138.7543  144.1943  155.5280 C.ar    1  UNL1        0.0553
     28 CL        138.2480  142.7966  155.3282 Cl      1  UNL1       -0.0825
     29 S         141.3219  141.6918  166.1024 S.O2    1  UNL1        0.0765
     30 O         140.0600  142.4967  166.2010 O.2     1  UNL1       -0.1497
     31 O         142.5839  140.8869  166.0038 O.2     1  UNL1       -0.1497
     32 C         141.7228  142.1524  167.4725 C.ar    1  UNL1        0.1256
     33 C         140.7255  142.8465  168.3521 C.ar    1  UNL1        0.0225
     34 C         141.1263  143.3071  169.7222 C.ar    1  UNL1        0.0310
     35 C         142.5245  143.0737  170.2127 C.ar    1  UNL1        0.1402
     36 F         142.9253  143.5343  171.5829 F       1  UNL1       -0.2042
     37 C         143.5219  142.3796  169.3332 C.ar    1  UNL1        0.0310
     38 C         143.1210  141.9190  167.9631 C.ar    1  UNL1        0.0225
@<TRIPOS>BOND
     1     1     2    1
     2     2     3    1
     3     3    29    1
     4    29    30    2
     5    29    31    2
     6    29    32    1
     7    32    33   ar
     8    33    34   ar
     9    34    35   ar
    10    35    36    1
    11    35    37   ar
    12    37    38   ar
    13     3     4    1
    14     4     5   ar
    15     5     6   ar
    16     6     7   ar
    17     7    17    1
    18    17    18    2
    19    17    19   am
    20    19    21    1
    21    21    22    1
    22    22    23   ar
    23    23    24   ar
    24    24    25   ar
    25    25    26   ar
    26    26    27   ar
    27    27    28    1
    28     7     8   ar
    29     8     9   ar
    30     9    10    1
    31    10    11    1
    32    11    12    1
    33    12    13    1
    34    13    14    1
    35    14    15    1
    36    10     2    1
    37    38    32   ar
    38     9     4   ar
    39    15    10    1
    40    27    22   ar
    41    19    20    1
    42    13    16    1
@<TRIPOS>MOLECULE
*****
 38 42 0 0 0
SMALL
GASTEIGER

@<TRIPOS>ATOM
      1 C         141.6094  142.0169  157.8617 C.3     1  UNL1        0.0237
      2 C         141.8594  141.4568  159.2306 C.3     1  UNL1        0.0998
      3 N         142.0117  140.0048  159.5748 N.pl3   1  UNL1       -0.1923
      4 C         142.2474  139.9010  161.0526 C.ar    1  UNL1        0.0648
      5 C         142.4672  138.7221  161.9535 C.ar    1  UNL1        0.0160
      6 C         142.6804  138.9309  163.4236 C.ar    1  UNL1        0.0058
      7 C         142.6737  140.3188  163.9926 C.ar    1  UNL1        0.0531
      8 C         142.4539  141.4978  163.0916 C.ar    1  UNL1        0.0015
      9 C         142.2408  141.2889  161.6216 C.ar    1  UNL1       -0.0061
     10 C         142.0010  142.2505  160.4956 C.3     1  UNL1        0.0412
     11 C         142.1633  142.9071  161.8344 C.3     1  UNL1        0.0229
     12 C         142.0797  144.4000  161.9526 C.3     1  UNL1        0.0689
     13 N         141.8338  145.2364  160.7319 N.3     1  UNL1       -0.2974
     14 C         141.6715  144.5798  159.3931 C.3     1  UNL1        0.0689
     15 C         141.7551  143.0868  159.2749 C.3     1  UNL1        0.0229
     16 H         142.6222  145.8786  160.6513 H       1  UNL1        0.1232
     17 C         142.8869  140.5277  165.4626 C.2     1  UNL1        0.2461
     18 O         143.4810  141.8125  165.9592 O.2     1  UNL1       -0.2701
     19 N         142.5059  139.4519  166.4360 N.am    1  UNL1       -0.2969
     20 H         142.1160  138.6087  166.1101 H       1  UNL1        0.1501
     21 C         142.7191  139.6608  167.9060 C.3     1  UNL1        0.1174
     22 C         141.7539  140.4974  168.6924 C.ar    1  UNL1        0.0080
     23 C         140.3201  140.0738  168.8138 C.ar    1  UNL1       -0.0018
     24 C         139.3548  140.9103  169.6002 C.ar    1  UNL1       -0.0002
     25 C         139.8233  142.1706  170.2652 C.ar    1  UNL1        0.0008
     26 C         141.2572  142.5943  170.1438 C.ar    1  UNL1        0.0111
     27 C         142.2224  141.7577  169.3574 C.ar    1  UNL1        0.0553
     28 CL        143.6562  142.1814  169.2359 Cl      1  UNL1       -0.0825
     29 S         141.9408  138.8580  158.6106 S.O2    1  UNL1        0.0765
     30 O         143.4232  138.9445  158.3987 O.2     1  UNL1       -0.1497
     31 O         140.4583  138.7715  158.8226 O.2     1  UNL1       -0.1497
     32 C         141.8699  137.7112  157.6464 C.ar    1  UNL1        0.1256
     33 C         142.9262  136.6464  157.6684 C.ar    1  UNL1        0.0225
     34 C         142.8553  135.4996  156.7041 C.ar    1  UNL1        0.0310
     35 C         141.7280  135.4174  155.7180 C.ar    1  UNL1        0.1402
     36 F         141.6571  134.2706  154.7537 F       1  UNL1       -0.2042
     37 C         140.6716  136.4822  155.6960 C.ar    1  UNL1        0.0310
     38 C         140.7425  137.6291  156.6602 C.ar    1  UNL1        0.0225
@<TRIPOS>BOND
     1     1     2    1
     2     2     3    1
     3     3    29    1
     4    29    30    2
     5    29    31    2
     6    29    32    1
     7    32    33   ar
     8    33    34   ar
     9    34    35   ar
    10    35    36    1
    11    35    37   ar
    12    37    38   ar
    13     3     4    1
    14     4     5   ar
    15     5     6   ar
    16     6     7   ar
    17     7    17    1
    18    17    18    2
    19    17    19   am
    20    19    21    1
    21    21    22    1
    22    22    23   ar
    23    23    24   ar
    24    24    25   ar
    25    25    26   ar
    26    26    27   ar
    27    27    28    1
    28     7     8   ar
    29     8     9   ar
    30     9    10    1
    31    10    11    1
    32    11    12    1
    33    12    13    1
    34    13    14    1
    35    14    15    1
    36    10     2    1
    37    38    32   ar
    38     9     4   ar
    39    15    10    1
    40    27    22   ar
    41    19    20    1
    42    13    16    1
@<TRIPOS>MOLECULE
*****
 38 42 0 0 0
SMALL
GASTEIGER

@<TRIPOS>ATOM
      1 C         140.8203  142.1104  158.2564 C.3     1  UNL1        0.0237
      2 C         141.6466  142.2189  159.5036 C.3     1  UNL1        0.0998
      3 N         143.1429  142.1456  159.5791 N.pl3   1  UNL1       -0.1923
      4 C         143.5427  142.3011  161.0165 C.ar    1  UNL1        0.0648
      5 C         144.8827  142.3104  161.6901 C.ar    1  UNL1        0.0160
      6 C         144.9737  142.4891  163.1767 C.ar    1  UNL1        0.0058
      7 C         143.7245  142.6585  163.9895 C.ar    1  UNL1        0.0531
      8 C         142.3842  142.6493  163.3158 C.ar    1  UNL1        0.0015
      9 C         142.2933  142.4706  161.8293 C.ar    1  UNL1       -0.0061
     10 C         141.1215  142.4198  160.8943 C.3     1  UNL1        0.0412
     11 C         140.7460  142.6183  162.3329 C.3     1  UNL1        0.0229
     12 C         139.3026  142.7459  162.7205 C.3     1  UNL1        0.0689
     13 N         138.2347  142.6750  161.6695 N.3     1  UNL1       -0.2974
     14 C         138.6102  142.4765  160.2309 C.3     1  UNL1        0.0689
     15 C         140.0536  142.3488  159.8433 C.3     1  UNL1        0.0229
     16 H         137.7136  143.5504  161.7197 H       1  UNL1        0.1232
     17 C         143.8154  142.8373  165.4760 C.2     1  UNL1        0.2461
     18 O         144.7593  143.8502  166.0534 O.2     1  UNL1       -0.2701
     19 N         142.9624  142.0031  166.3853 N.am    1  UNL1       -0.2969
     20 H         142.3430  141.3383  166.0064 H       1  UNL1        0.1501
     21 C         143.0533  142.1818  167.8718 C.3     1  UNL1        0.1174
     22 C         142.1110  141.4428  168.7751 C.ar    1  UNL1        0.0080
     23 C         142.5144  140.1223  169.3611 C.ar    1  UNL1       -0.0018
     24 C         141.5722  139.3832  170.2643 C.ar    1  UNL1       -0.0002
     25 C         140.2263  139.9648  170.5817 C.ar    1  UNL1        0.0008
     26 C         139.8229  141.2854  169.9956 C.ar    1  UNL1        0.0111
     27 C         140.7652  142.0244  169.0924 C.ar    1  UNL1        0.0553
     28 CL        140.3618  143.3449  168.5064 Cl      1  UNL1       -0.0825
     29 S         144.0756  141.9509  158.4207 S.O2    1  UNL1        0.0765
     30 O         144.1051  140.4759  158.6923 O.2     1  UNL1       -0.1497
     31 O         144.0461  143.4258  158.1490 O.2     1  UNL1       -0.1497
     32 C         145.0084  141.7562  157.2622 C.ar    1  UNL1        0.1256
     33 C         146.3029  142.5117  157.2064 C.ar    1  UNL1        0.0225
     34 C         147.2357  142.3170  156.0480 C.ar    1  UNL1        0.0310
     35 C         146.8739  141.3667  154.9452 C.ar    1  UNL1        0.1402
     36 F         147.8067  141.1720  153.7868 F       1  UNL1       -0.2042
     37 C         145.5793  140.6111  155.0009 C.ar    1  UNL1        0.0310
     38 C         144.6465  140.8058  156.1594 C.ar    1  UNL1        0.0225
@<TRIPOS>BOND
     1     1     2    1
     2     2     3    1
     3     3    29    1
     4    29    30    2
     5    29    31    2
     6    29    32    1
     7    32    33   ar
     8    33    34   ar
     9    34    35   ar
    10    35    36    1
    11    35    37   ar
    12    37    38   ar
    13     3     4    1
    14     4     5   ar
    15     5     6   ar
    16     6     7   ar
    17     7    17    1
    18    17    18    2
    19    17    19   am
    20    19    21    1
    21    21    22    1
    22    22    23   ar
    23    23    24   ar
    24    24    25   ar
    25    25    26   ar
    26    26    27   ar
    27    27    28    1
    28     7     8   ar
    29     8     9   ar
    30     9    10    1
    31    10    11    1
    32    11    12    1
    33    12    13    1
    34    13    14    1
    35    14    15    1
    36    10     2    1
    37    38    32   ar
    38     9     4   ar
    39    15    10    1
    40    27    22   ar
    41    19    20    1
    42    13    16    1
@<TRIPOS>MOLECULE
*****
 38 42 0 0 0
SMALL
GASTEIGER

@<TRIPOS>ATOM
      1 C         139.6874  144.7059  164.5353 C.3     1  UNL1        0.0237
      2 C         140.3431  143.5440  163.8499 C.3     1  UNL1        0.0998
      3 N         140.8419  142.2952  164.5144 N.pl3   1  UNL1       -0.1923
      4 C         141.4223  141.4062  163.4547 C.ar    1  UNL1        0.0648
      5 C         142.0603  140.0504  163.5207 C.ar    1  UNL1        0.0160
      6 C         142.5582  139.3938  162.2672 C.ar    1  UNL1        0.0058
      7 C         142.4181  140.0933  160.9478 C.ar    1  UNL1        0.0531
      8 C         141.7801  141.4493  160.8816 C.ar    1  UNL1        0.0015
      9 C         141.2823  142.1058  162.1351 C.ar    1  UNL1       -0.0061
     10 C         140.6153  143.4270  162.3793 C.3     1  UNL1        0.0412
     11 C         140.9500  143.1693  160.9401 C.3     1  UNL1        0.0229
     12 C         140.6141  144.1936  159.8970 C.3     1  UNL1        0.0689
     13 N         139.9436  145.4755  160.2933 N.3     1  UNL1       -0.2974
     14 C         139.6088  145.7332  161.7325 C.3     1  UNL1        0.0689
     15 C         139.9447  144.7089  162.7756 C.3     1  UNL1        0.0229
     16 H         139.0667  145.5218  159.7742 H       1  UNL1        0.1232
     17 C         142.9160  139.4369  159.6943 C.2     1  UNL1        0.2461
     18 O         144.1501  139.9539  159.0161 O.2     1  UNL1       -0.2701
     19 N         142.1799  138.2634  159.1190 N.am    1  UNL1       -0.2969
     20 H         141.3699  137.9240  159.5640 H       1  UNL1        0.1501
     21 C         142.6778  137.6069  157.8655 C.3     1  UNL1        0.1174
     22 C         141.7121  137.2325  156.7805 C.ar    1  UNL1        0.0080
     23 C         140.2653  137.6096  156.9012 C.ar    1  UNL1       -0.0018
     24 C         139.2996  137.2353  155.8162 C.ar    1  UNL1       -0.0002
     25 C         139.7806  136.4837  154.6104 C.ar    1  UNL1        0.0008
     26 C         141.2275  136.1066  154.4897 C.ar    1  UNL1        0.0111
     27 C         142.1932  136.4810  155.5748 C.ar    1  UNL1        0.0553
     28 CL        143.6400  136.1039  155.4541 Cl      1  UNL1       -0.0825
     29 S         140.7725  141.9890  165.9811 S.O2    1  UNL1        0.0765
     30 O         139.3960  141.4218  165.7975 O.2     1  UNL1       -0.1497
     31 O         142.1489  142.5561  166.1647 O.2     1  UNL1       -0.1497
     32 C         140.7030  141.6828  167.4479 C.ar    1  UNL1        0.1256
     33 C         140.7873  140.2623  167.9223 C.ar    1  UNL1        0.0225
     34 C         140.7178  139.9561  169.3891 C.ar    1  UNL1        0.0310
     35 C         140.5641  141.0703  170.3815 C.ar    1  UNL1        0.1402
     36 F         140.4946  140.7641  171.8483 F       1  UNL1       -0.2042
     37 C         140.4798  142.4909  169.9070 C.ar    1  UNL1        0.0310
     38 C         140.5493  142.7971  168.4403 C.ar    1  UNL1        0.0225
@<TRIPOS>BOND
     1     1     2    1
     2     2     3    1
     3     3    29    1
     4    29    30    2
     5    29    31    2
     6    29    32    1
     7    32    33   ar
     8    33    34   ar
     9    34    35   ar
    10    35    36    1
    11    35    37   ar
    12    37    38   ar
    13     3     4    1
    14     4     5   ar
    15     5     6   ar
    16     6     7   ar
    17     7    17    1
    18    17    18    2
    19    17    19   am
    20    19    21    1
    21    21    22    1
    22    22    23   ar
    23    23    24   ar
    24    24    25   ar
    25    25    26   ar
    26    26    27   ar
    27    27    28    1
    28     7     8   ar
    29     8     9   ar
    30     9    10    1
    31    10    11    1
    32    11    12    1
    33    12    13    1
    34    13    14    1
    35    14    15    1
    36    10     2    1
    37    38    32   ar
    38     9     4   ar
    39    15    10    1
    40    27    22   ar
    41    19    20    1
    42    13    16    1
@<TRIPOS>MOLECULE
*****
 38 42 0 0 0
SMALL
GASTEIGER

@<TRIPOS>ATOM
      1 C         139.0407  142.6376  165.0903 C.3     1  UNL1        0.0237
      2 C         139.9462  141.8679  164.1751 C.3     1  UNL1        0.0998
      3 N         141.1306  141.0474  164.5919 N.pl3   1  UNL1       -0.1923
      4 C         141.7427  140.4559  163.3567 C.ar    1  UNL1        0.0648
      5 C         142.9298  139.5619  163.1542 C.ar    1  UNL1        0.0160
      6 C         143.3110  139.1228  161.7714 C.ar    1  UNL1        0.0058
      7 C         142.5047  139.5779  160.5912 C.ar    1  UNL1        0.0531
      8 C         141.3175  140.4720  160.7937 C.ar    1  UNL1        0.0015
      9 C         140.9364  140.9110  162.1764 C.ar    1  UNL1       -0.0061
     10 C         139.8261  141.7837  162.6822 C.3     1  UNL1        0.0412
     11 C         139.8329  141.6068  161.1927 C.3     1  UNL1        0.0229
     12 C         138.7864  142.2775  160.3531 C.3     1  UNL1        0.0689
     13 N         137.7331  143.1250  161.0030 N.3     1  UNL1       -0.2974
     14 C         137.7263  143.3018  162.4925 C.3     1  UNL1        0.0689
     15 C         138.7728  142.6312  163.3321 C.3     1  UNL1        0.0229
     16 H         136.8318  142.7196  160.7505 H       1  UNL1        0.1232
     17 C         142.8858  139.1389  159.2084 C.2     1  UNL1        0.2461
     18 O         144.1884  139.5841  158.6124 O.2     1  UNL1       -0.2701
     19 N         141.9643  138.2546  158.4217 N.am    1  UNL1       -0.2969
     20 H         141.1094  137.9624  158.8128 H       1  UNL1        0.1501
     21 C         142.3454  137.8156  157.0389 C.3     1  UNL1        0.1174
     22 C         142.3096  136.3602  156.6775 C.ar    1  UNL1        0.0080
     23 C         143.2326  135.3950  157.3605 C.ar    1  UNL1       -0.0018
     24 C         143.1970  133.9396  156.9992 C.ar    1  UNL1       -0.0002
     25 C         142.2382  133.4494  155.9549 C.ar    1  UNL1        0.0008
     26 C         141.3152  134.4146  155.2719 C.ar    1  UNL1        0.0111
     27 C         141.3509  135.8700  155.6332 C.ar    1  UNL1        0.0553
     28 CL        140.4279  136.8352  154.9503 Cl      1  UNL1       -0.0825
     29 S         141.6175  140.8524  165.9972 S.O2    1  UNL1        0.0765
     30 O         140.8158  139.5888  166.0997 O.2     1  UNL1       -0.1497
     31 O         142.4192  142.1161  165.8947 O.2     1  UNL1       -0.1497
     32 C         142.1044  140.6575  167.4025 C.ar    1  UNL1        0.1256
     33 C         141.9282  139.3309  168.0800 C.ar    1  UNL1        0.0225
     34 C         142.4151  139.1359  169.4854 C.ar    1  UNL1        0.0310
     35 C         143.0783  140.2676  170.2132 C.ar    1  UNL1        0.1402
     36 F         143.5652  140.0726  171.6185 F       1  UNL1       -0.2042
     37 C         143.2545  141.5943  169.5356 C.ar    1  UNL1        0.0310
     38 C         142.7676  141.7892  168.1303 C.ar    1  UNL1        0.0225
@<TRIPOS>BOND
     1     1     2    1
     2     2     3    1
     3     3    29    1
     4    29    30    2
     5    29    31    2
     6    29    32    1
     7    32    33   ar
     8    33    34   ar
     9    34    35   ar
    10    35    36    1
    11    35    37   ar
    12    37    38   ar
    13     3     4    1
    14     4     5   ar
    15     5     6   ar
    16     6     7   ar
    17     7    17    1
    18    17    18    2
    19    17    19   am
    20    19    21    1
    21    21    22    1
    22    22    23   ar
    23    23    24   ar
    24    24    25   ar
    25    25    26   ar
    26    26    27   ar
    27    27    28    1
    28     7     8   ar
    29     8     9   ar
    30     9    10    1
    31    10    11    1
    32    11    12    1
    33    12    13    1
    34    13    14    1
    35    14    15    1
    36    10     2    1
    37    38    32   ar
    38     9     4   ar
    39    15    10    1
    40    27    22   ar
    41    19    20    1
    42    13    16    1
@<TRIPOS>MOLECULE
*****
 38 42 0 0 0
SMALL
GASTEIGER

@<TRIPOS>ATOM
      1 C         141.9957  146.2183  157.3269 C.3     1  UNL1        0.0237
      2 C         140.7877  145.4374  156.9016 C.3     1  UNL1        0.0998
      3 N         139.6822  145.9349  156.0182 N.pl3   1  UNL1       -0.1923
      4 C         138.6843  144.8268  155.8557 C.ar    1  UNL1        0.0648
      5 C         137.3938  144.7416  155.0960 C.ar    1  UNL1        0.0160
      6 C         136.5920  143.4741  155.1193 C.ar    1  UNL1        0.0058
      7 C         137.0807  142.2918  155.9024 C.ar    1  UNL1        0.0531
      8 C         138.3712  142.3769  156.6622 C.ar    1  UNL1        0.0015
      9 C         139.1731  143.6444  156.6389 C.ar    1  UNL1       -0.0061
     10 C         140.4730  144.0217  157.2853 C.3     1  UNL1        0.0412
     11 C         140.0278  142.6206  157.5827 C.3     1  UNL1        0.0229
     12 C         140.8659  141.7375  158.4588 C.3     1  UNL1        0.0689
     13 N         142.1492  142.2555  159.0375 N.3     1  UNL1       -0.2974
     14 C         142.5943  143.6567  158.7401 C.3     1  UNL1        0.0689
     15 C         141.7562  144.5398  157.8640 C.3     1  UNL1        0.0229
     16 H         142.8906  141.6356  158.7116 H       1  UNL1        0.1232
     17 C         136.2789  141.0243  155.9257 C.2     1  UNL1        0.2461
     18 O         136.9657  139.6994  155.7732 O.2     1  UNL1       -0.2701
     19 N         134.7903  141.0816  156.1015 N.am    1  UNL1       -0.2969
     20 H         134.3396  141.9511  156.2016 H       1  UNL1        0.1501
     21 C         133.9885  139.8141  156.1248 C.3     1  UNL1        0.1174
     22 C         132.5302  139.8555  156.4734 C.ar    1  UNL1        0.0080
     23 C         131.5964  140.7303  155.6906 C.ar    1  UNL1       -0.0018
     24 C         130.1381  140.7717  156.0392 C.ar    1  UNL1       -0.0002
     25 C         129.6134  139.9383  157.1706 C.ar    1  UNL1        0.0008
     26 C         130.5472  139.0634  157.9535 C.ar    1  UNL1        0.0111
     27 C         132.0056  139.0220  157.6049 C.ar    1  UNL1        0.0553
     28 CL        132.9393  138.1472  158.3877 Cl      1  UNL1       -0.0825
     29 S         139.5908  147.3006  155.4048 S.O2    1  UNL1        0.0765
     30 O         138.8589  147.7959  156.6169 O.2     1  UNL1       -0.1497
     31 O         140.3226  146.8053  154.1928 O.2     1  UNL1       -0.1497
     32 C         139.4993  148.6665  154.7915 C.ar    1  UNL1        0.1256
     33 C         138.8735  149.7930  155.5592 C.ar    1  UNL1        0.0225
     34 C         138.7820  151.1588  154.9458 C.ar    1  UNL1        0.0310
     35 C         139.3163  151.3981  153.5648 C.ar    1  UNL1        0.1402
     36 F         139.2248  152.7639  152.9514 F       1  UNL1       -0.2042
     37 C         139.9422  150.2716  152.7970 C.ar    1  UNL1        0.0310
     38 C         140.0336  148.9057  153.4104 C.ar    1  UNL1        0.0225
@<TRIPOS>BOND
     1     1     2    1
     2     2     3    1
     3     3    29    1
     4    29    30    2
     5    29    31    2
     6    29    32    1
     7    32    33   ar
     8    33    34   ar
     9    34    35   ar
    10    35    36    1
    11    35    37   ar
    12    37    38   ar
    13     3     4    1
    14     4     5   ar
    15     5     6   ar
    16     6     7   ar
    17     7    17    1
    18    17    18    2
    19    17    19   am
    20    19    21    1
    21    21    22    1
    22    22    23   ar
    23    23    24   ar
    24    24    25   ar
    25    25    26   ar
    26    26    27   ar
    27    27    28    1
    28     7     8   ar
    29     8     9   ar
    30     9    10    1
    31    10    11    1
    32    11    12    1
    33    12    13    1
    34    13    14    1
    35    14    15    1
    36    10     2    1
    37    38    32   ar
    38     9     4   ar
    39    15    10    1
    40    27    22   ar
    41    19    20    1
    42    13    16    1
