@<TRIPOS>MOLECULE
*****
 36 39 0 0 0
SMALL
GASTEIGER

@<TRIPOS>ATOM
      1 N         143.3237  140.4498  160.9959 N.3     1  UNL1       -0.2673
      2 C         142.1567  140.5782  160.0624 C.3     1  UNL1        0.1035
      3 C         141.4153  141.8784  159.9631 C.3     1  UNL1        0.1470
      4 C         140.6738  143.1785  159.8637 C.3     1  UNL1        0.1036
      5 N         141.0993  144.3503  160.6980 N.3     1  UNL1       -0.2653
      6 C         142.2664  144.2218  161.6316 C.3     1  UNL1        0.1036
      7 C         143.0078  142.9217  161.7309 C.3     1  UNL1        0.1470
      8 C         143.7493  141.6216  161.8302 C.3     1  UNL1        0.1035
      9 O         141.8408  143.0501  160.7973 O.3     1  UNL1       -0.3530
     10 C         144.0652  139.1497  161.0953 C.3     1  UNL1        0.0913
     11 C         144.0504  138.3740  162.3790 C.3     1  UNL1        0.1087
     12 N         142.7574  138.1523  163.1065 N.3     1  UNL1       -0.1780
     13 H         142.0184  138.1632  162.4035 H       1  UNL1        0.1488
     14 S         142.3361  139.0975  164.1923 S.O2    1  UNL1        0.0603
     15 O         141.1882  139.5596  163.3446 O.2     1  UNL1       -0.1530
     16 O         143.4840  138.6354  165.0400 O.2     1  UNL1       -0.1530
     17 C         141.0721  141.9332  167.4498 C.ar    1  UNL1        0.0685
     18 C         141.6018  142.4690  166.1528 C.ar    1  UNL1        0.0116
     19 C         142.0232  141.5238  165.0669 C.ar    1  UNL1        0.0206
     20 C         141.9148  140.0427  165.2781 C.ar    1  UNL1        0.1220
     21 C         141.3850  139.5068  166.5752 C.ar    1  UNL1        0.0206
     22 C         140.9637  140.4521  167.6610 C.ar    1  UNL1        0.0116
     23 N         140.2295  143.8237  169.6214 N.1     1  UNL1       -0.1908
     24 C         140.6508  142.8784  168.5356 C.1     1  UNL1        0.1004
     25 C         140.3579  145.6504  160.5987 C.3     1  UNL1        0.1202
     26 C         139.6017  146.1750  161.7832 C.3     1  UNL1        0.2228
     27 O         138.2841  145.5661  162.1614 O.3     1  UNL1       -0.4717
     28 C         138.2440  144.2406  162.8624 C.ar    1  UNL1        0.1659
     29 C         137.9195  142.9947  162.0929 C.ar    1  UNL1        0.0399
     30 C         137.8795  141.6691  162.7940 C.ar    1  UNL1        0.0135
     31 C         138.1640  141.5896  164.2645 C.ar    1  UNL1        0.0709
     32 C         138.4885  142.8356  165.0341 C.ar    1  UNL1        0.0430
     33 C         138.5285  144.1611  164.3331 C.ar    1  UNL1        0.1745
     34 F         138.8531  145.4070  165.1027 F       1  UNL1       -0.2009
     35 C         138.1239  140.2642  164.9656 C.1     1  UNL1        0.1005
     36 N         138.0839  138.9386  165.6666 N.1     1  UNL1       -0.1908
@<TRIPOS>BOND
     1    23    24    3
     2    24    17    1
     3    17    18   ar
     4    18    19   ar
     5    19    20   ar
     6    20    14    1
     7    14    15    2
     8    14    16    2
     9    14    12    1
    10    12    11    1
    11    11    10    1
    12    10     1    1
    13     1     2    1
    14     2     3    1
    15     3     4    1
    16     4     5    1
    17     5    25    1
    18    25    26    1
    19    26    27    1
    20    27    28    1
    21    28    29   ar
    22    29    30   ar
    23    30    31   ar
    24    31    35    1
    25    35    36    3
    26    31    32   ar
    27    32    33   ar
    28    33    34    1
    29     5     6    1
    30     6     7    1
    31     7     8    1
    32     7     9    1
    33    20    21   ar
    34    21    22   ar
    35    22    17   ar
    36     8     1    1
    37     9     3    1
    38    33    28   ar
    39    12    13    1
@<TRIPOS>MOLECULE
*****
 36 39 0 0 0
SMALL
GASTEIGER

@<TRIPOS>ATOM
      1 N         142.1510  140.2017  167.5007 N.3     1  UNL1       -0.2673
      2 C         142.5474  141.6412  167.3564 C.3     1  UNL1        0.1035
      3 C         143.4090  142.0700  166.2059 C.3     1  UNL1        0.1470
      4 C         144.2707  142.4990  165.0554 C.3     1  UNL1        0.1036
      5 N         144.7359  141.4884  164.0493 N.3     1  UNL1       -0.2653
      6 C         144.3395  140.0489  164.1936 C.3     1  UNL1        0.1036
      7 C         143.4778  139.6200  165.3441 C.3     1  UNL1        0.1470
      8 C         142.6162  139.1912  166.4945 C.3     1  UNL1        0.1035
      9 O         143.8742  141.0595  165.1998 O.3     1  UNL1       -0.3530
     10 C         141.2893  139.7728  168.6512 C.3     1  UNL1        0.0913
     11 C         139.8435  140.1701  168.6943 C.3     1  UNL1        0.1087
     12 N         138.8119  139.3219  168.0114 N.3     1  UNL1       -0.1780
     13 H         139.0605  138.3500  168.1960 H       1  UNL1        0.1488
     14 S         138.6030  139.4416  166.5308 S.O2    1  UNL1        0.0603
     15 O         139.1716  140.8293  166.5629 O.2     1  UNL1       -0.1530
     16 O         138.0344  138.0540  166.4988 O.2     1  UNL1       -0.1530
     17 C         137.9764  139.8009  162.0892 C.ar    1  UNL1        0.0685
     18 C         138.5146  138.5270  162.6700 C.ar    1  UNL1        0.0116
     19 C         138.7235  138.4072  164.1506 C.ar    1  UNL1        0.0206
     20 C         138.3942  139.5614  165.0503 C.ar    1  UNL1        0.1220
     21 C         137.8559  140.8354  164.4694 C.ar    1  UNL1        0.0206
     22 C         137.6471  140.9551  162.9889 C.ar    1  UNL1        0.0116
     23 N         137.5587  140.0404  159.1281 N.1     1  UNL1       -0.1908
     24 C         137.7676  139.9207  160.6087 C.1     1  UNL1        0.1004
     25 C         145.5976  141.9173  162.8988 C.3     1  UNL1        0.1202
     26 C         144.9765  142.2120  161.5656 C.3     1  UNL1        0.2228
     27 O         144.2075  143.4835  161.3611 O.3     1  UNL1       -0.4717
     28 C         142.9294  143.7158  162.1110 C.ar    1  UNL1        0.1659
     29 C         141.7385  142.8411  161.8526 C.ar    1  UNL1        0.0399
     30 C         140.4604  143.0734  162.6026 C.ar    1  UNL1        0.0135
     31 C         140.3731  144.1805  163.6109 C.ar    1  UNL1        0.0709
     32 C         141.5639  145.0552  163.8693 C.ar    1  UNL1        0.0430
     33 C         142.8420  144.8229  163.1194 C.ar    1  UNL1        0.1745
     34 F         144.0329  145.6976  163.3778 F       1  UNL1       -0.2009
     35 C         139.0950  144.4128  164.3608 C.1     1  UNL1        0.1005
     36 N         137.8168  144.6451  165.1108 N.1     1  UNL1       -0.1908
@<TRIPOS>BOND
     1    23    24    3
     2    24    17    1
     3    17    18   ar
     4    18    19   ar
     5    19    20   ar
     6    20    14    1
     7    14    15    2
     8    14    16    2
     9    14    12    1
    10    12    11    1
    11    11    10    1
    12    10     1    1
    13     1     2    1
    14     2     3    1
    15     3     4    1
    16     4     5    1
    17     5    25    1
    18    25    26    1
    19    26    27    1
    20    27    28    1
    21    28    29   ar
    22    29    30   ar
    23    30    31   ar
    24    31    35    1
    25    35    36    3
    26    31    32   ar
    27    32    33   ar
    28    33    34    1
    29     5     6    1
    30     6     7    1
    31     7     8    1
    32     7     9    1
    33    20    21   ar
    34    21    22   ar
    35    22    17   ar
    36     8     1    1
    37     9     3    1
    38    33    28   ar
    39    12    13    1
@<TRIPOS>MOLECULE
*****
 36 39 0 0 0
SMALL
GASTEIGER

@<TRIPOS>ATOM
      1 N         140.3899  138.8952  161.1590 N.3     1  UNL1       -0.2673
      2 C         140.4912  140.3715  160.9135 C.3     1  UNL1        0.1035
      3 C         141.7577  141.1023  161.2481 C.3     1  UNL1        0.1470
      4 C         143.0242  141.8331  161.5826 C.3     1  UNL1        0.1036
      5 N         144.1895  141.0875  162.1626 N.3     1  UNL1       -0.2653
      6 C         144.0882  139.6111  162.4080 C.3     1  UNL1        0.1036
      7 C         142.8216  138.8804  162.0735 C.3     1  UNL1        0.1470
      8 C         141.5551  138.1497  161.7389 C.3     1  UNL1        0.1035
      9 O         142.9229  140.3567  161.8280 O.3     1  UNL1       -0.3530
     10 C         139.1233  138.1644  160.8245 C.3     1  UNL1        0.0913
     11 C         138.0291  138.0546  161.8444 C.3     1  UNL1        0.1087
     12 N         137.8034  139.1670  162.8251 N.3     1  UNL1       -0.1780
     13 H         137.8838  140.0400  162.3037 H       1  UNL1        0.1488
     14 S         138.6900  139.2979  164.0279 S.O2    1  UNL1        0.0603
     15 O         138.6589  140.7910  163.8885 O.2     1  UNL1       -0.1530
     16 O         138.7212  137.8047  164.1673 O.2     1  UNL1       -0.1530
     17 C         141.3500  139.6903  167.6363 C.ar    1  UNL1        0.0685
     18 C         139.9204  140.1388  167.7061 C.ar    1  UNL1        0.0116
     19 C         139.0337  140.0080  166.5033 C.ar    1  UNL1        0.0206
     20 C         139.5767  139.4287  165.2307 C.ar    1  UNL1        0.1220
     21 C         141.0064  138.9801  165.1609 C.ar    1  UNL1        0.0206
     22 C         141.8930  139.1110  166.3637 C.ar    1  UNL1        0.0116
     23 N         143.1233  139.9519  170.0419 N.1     1  UNL1       -0.1908
     24 C         142.2366  139.8211  168.8391 C.1     1  UNL1        0.1004
     25 C         145.4560  141.8182  162.4971 C.3     1  UNL1        0.1202
     26 C         145.8471  142.0237  163.9306 C.3     1  UNL1        0.2228
     27 O         145.2888  143.1830  164.7015 O.3     1  UNL1       -0.4717
     28 C         143.8090  143.4272  164.7220 C.ar    1  UNL1        0.1659
     29 C         142.9099  142.5195  165.5080 C.ar    1  UNL1        0.0399
     30 C         141.4300  142.7637  165.5284 C.ar    1  UNL1        0.0135
     31 C         140.8493  143.9155  164.7629 C.ar    1  UNL1        0.0709
     32 C         141.7484  144.8232  163.9769 C.ar    1  UNL1        0.0430
     33 C         143.2282  144.5790  163.9565 C.ar    1  UNL1        0.1745
     34 F         144.1273  145.4867  163.1705 F       1  UNL1       -0.2009
     35 C         139.3695  144.1597  164.7834 C.1     1  UNL1        0.1005
     36 N         137.8896  144.4039  164.8038 N.1     1  UNL1       -0.1908
@<TRIPOS>BOND
     1    23    24    3
     2    24    17    1
     3    17    18   ar
     4    18    19   ar
     5    19    20   ar
     6    20    14    1
     7    14    15    2
     8    14    16    2
     9    14    12    1
    10    12    11    1
    11    11    10    1
    12    10     1    1
    13     1     2    1
    14     2     3    1
    15     3     4    1
    16     4     5    1
    17     5    25    1
    18    25    26    1
    19    26    27    1
    20    27    28    1
    21    28    29   ar
    22    29    30   ar
    23    30    31   ar
    24    31    35    1
    25    35    36    3
    26    31    32   ar
    27    32    33   ar
    28    33    34    1
    29     5     6    1
    30     6     7    1
    31     7     8    1
    32     7     9    1
    33    20    21   ar
    34    21    22   ar
    35    22    17   ar
    36     8     1    1
    37     9     3    1
    38    33    28   ar
    39    12    13    1
@<TRIPOS>MOLECULE
*****
 36 39 0 0 0
SMALL
GASTEIGER

@<TRIPOS>ATOM
      1 N         140.2526  140.0569  159.7955 N.3     1  UNL1       -0.2673
      2 C         140.6501  141.4948  159.6390 C.3     1  UNL1        0.1035
      3 C         139.9989  142.5491  160.4841 C.3     1  UNL1        0.1470
      4 C         139.3476  143.6036  161.3291 C.3     1  UNL1        0.1036
      5 N         138.2989  143.2201  162.3307 N.3     1  UNL1       -0.2653
      6 C         137.9014  141.7821  162.4871 C.3     1  UNL1        0.1036
      7 C         138.5527  140.7278  161.6421 C.3     1  UNL1        0.1470
      8 C         139.2039  139.6734  160.7970 C.3     1  UNL1        0.1035
      9 O         138.9501  142.1656  161.4856 O.3     1  UNL1       -0.3530
     10 C         140.9039  139.0025  158.9504 C.3     1  UNL1        0.0913
     11 C         142.3524  138.6690  159.1515 C.3     1  UNL1        0.1087
     12 N         142.7511  137.6388  160.1664 N.3     1  UNL1       -0.1780
     13 H         142.1076  136.8547  160.0583 H       1  UNL1        0.1488
     14 S         142.7658  137.9891  161.6248 S.O2    1  UNL1        0.0603
     15 O         144.0440  138.7493  161.4292 O.2     1  UNL1       -0.1530
     16 O         141.4876  137.2288  161.8203 O.2     1  UNL1       -0.1530
     17 C         142.8101  139.0400  166.0001 C.ar    1  UNL1        0.0685
     18 C         141.5500  138.5337  165.3631 C.ar    1  UNL1        0.0116
     19 C         141.5352  138.1834  163.9046 C.ar    1  UNL1        0.0206
     20 C         142.7805  138.3394  163.0832 C.ar    1  UNL1        0.1220
     21 C         144.0407  138.8456  163.7203 C.ar    1  UNL1        0.0206
     22 C         144.0554  139.1959  165.1787 C.ar    1  UNL1        0.0116
     23 N         142.8396  139.7405  168.9170 N.1     1  UNL1       -0.1908
     24 C         142.8248  139.3903  167.4585 C.1     1  UNL1        0.1004
     25 C         137.6476  144.2744  163.1757 C.3     1  UNL1        0.1202
     26 C         137.9227  144.3303  164.6493 C.3     1  UNL1        0.2228
     27 O         139.2495  144.8223  165.1465 O.3     1  UNL1       -0.4717
     28 C         140.5184  144.2278  164.6112 C.ar    1  UNL1        0.1659
     29 C         141.5172  145.0992  163.9092 C.ar    1  UNL1        0.0399
     30 C         142.7861  144.5045  163.3739 C.ar    1  UNL1        0.0135
     31 C         143.0560  143.0385  163.5408 C.ar    1  UNL1        0.0709
     32 C         142.0572  142.1671  164.2428 C.ar    1  UNL1        0.0430
     33 C         140.7884  142.7617  164.7781 C.ar    1  UNL1        0.1745
     34 F         139.7895  141.8902  165.4802 F       1  UNL1       -0.2009
     35 C         144.3249  142.4439  163.0055 C.1     1  UNL1        0.1005
     36 N         145.5937  141.8492  162.4703 N.1     1  UNL1       -0.1908
@<TRIPOS>BOND
     1    23    24    3
     2    24    17    1
     3    17    18   ar
     4    18    19   ar
     5    19    20   ar
     6    20    14    1
     7    14    15    2
     8    14    16    2
     9    14    12    1
    10    12    11    1
    11    11    10    1
    12    10     1    1
    13     1     2    1
    14     2     3    1
    15     3     4    1
    16     4     5    1
    17     5    25    1
    18    25    26    1
    19    26    27    1
    20    27    28    1
    21    28    29   ar
    22    29    30   ar
    23    30    31   ar
    24    31    35    1
    25    35    36    3
    26    31    32   ar
    27    32    33   ar
    28    33    34    1
    29     5     6    1
    30     6     7    1
    31     7     8    1
    32     7     9    1
    33    20    21   ar
    34    21    22   ar
    35    22    17   ar
    36     8     1    1
    37     9     3    1
    38    33    28   ar
    39    12    13    1
@<TRIPOS>MOLECULE
*****
 36 39 0 0 0
SMALL
GASTEIGER

@<TRIPOS>ATOM
      1 N         141.0446  144.2478  160.4835 N.3     1  UNL1       -0.2673
      2 C         142.3507  144.1036  161.2069 C.3     1  UNL1        0.1035
      3 C         143.0735  142.7893  161.1949 C.3     1  UNL1        0.1470
      4 C         143.7964  141.4749  161.1829 C.3     1  UNL1        0.1036
      5 N         143.2131  140.3049  160.4476 N.3     1  UNL1       -0.2653
      6 C         141.9069  140.4492  159.7242 C.3     1  UNL1        0.1036
      7 C         141.1841  141.7634  159.7362 C.3     1  UNL1        0.1470
      8 C         140.4613  143.0777  159.7482 C.3     1  UNL1        0.1035
      9 O         142.4902  141.6192  160.4595 O.3     1  UNL1       -0.3530
     10 C         140.3217  145.5621  160.4955 C.3     1  UNL1        0.0913
     11 C         139.6577  146.0414  161.7522 C.3     1  UNL1        0.1087
     12 N         138.8379  145.0930  162.5760 N.3     1  UNL1       -0.1780
     13 H         138.2428  145.6634  163.1767 H       1  UNL1        0.1488
     14 S         139.5158  144.0915  163.4633 S.O2    1  UNL1        0.0603
     15 O         138.7480  142.9857  162.8018 O.2     1  UNL1       -0.1530
     16 O         140.2837  145.1973  164.1247 O.2     1  UNL1       -0.1530
     17 C         141.5497  141.0869  166.1252 C.ar    1  UNL1        0.0685
     18 C         140.8973  142.2981  166.7230 C.ar    1  UNL1        0.0116
     19 C         140.2193  143.2997  165.8357 C.ar    1  UNL1        0.0206
     20 C         140.1938  143.0900  164.3506 C.ar    1  UNL1        0.1220
     21 C         140.8463  141.8787  163.7529 C.ar    1  UNL1        0.0206
     22 C         141.5242  140.8773  164.6402 C.ar    1  UNL1        0.0116
     23 N         142.9057  139.0839  167.8999 N.1     1  UNL1       -0.1908
     24 C         142.2277  140.0855  167.0125 C.1     1  UNL1        0.1004
     25 C         143.9359  138.9906  160.4355 C.3     1  UNL1        0.1202
     26 C         143.4421  137.8553  161.2827 C.3     1  UNL1        0.2228
     27 O         142.0103  137.4181  161.1903 O.3     1  UNL1       -0.4717
     28 C         141.0874  137.6215  162.3551 C.ar    1  UNL1        0.1659
     29 C         141.5240  137.2287  163.7354 C.ar    1  UNL1        0.0399
     30 C         140.6010  137.4322  164.9003 C.ar    1  UNL1        0.0135
     31 C         139.2416  138.0284  164.6848 C.ar    1  UNL1        0.0709
     32 C         138.8050  138.4212  163.3046 C.ar    1  UNL1        0.0430
     33 C         139.7279  138.2178  162.1397 C.ar    1  UNL1        0.1745
     34 F         139.2914  138.6106  160.7595 F       1  UNL1       -0.2009
     35 C         138.3187  138.2318  165.8497 C.1     1  UNL1        0.1005
     36 N         137.3958  138.4352  167.0145 N.1     1  UNL1       -0.1908
@<TRIPOS>BOND
     1    23    24    3
     2    24    17    1
     3    17    18   ar
     4    18    19   ar
     5    19    20   ar
     6    20    14    1
     7    14    15    2
     8    14    16    2
     9    14    12    1
    10    12    11    1
    11    11    10    1
    12    10     1    1
    13     1     2    1
    14     2     3    1
    15     3     4    1
    16     4     5    1
    17     5    25    1
    18    25    26    1
    19    26    27    1
    20    27    28    1
    21    28    29   ar
    22    29    30   ar
    23    30    31   ar
    24    31    35    1
    25    35    36    3
    26    31    32   ar
    27    32    33   ar
    28    33    34    1
    29     5     6    1
    30     6     7    1
    31     7     8    1
    32     7     9    1
    33    20    21   ar
    34    21    22   ar
    35    22    17   ar
    36     8     1    1
    37     9     3    1
    38    33    28   ar
    39    12    13    1
@<TRIPOS>MOLECULE
*****
 36 39 0 0 0
SMALL
GASTEIGER

@<TRIPOS>ATOM
      1 N         140.6496  140.2651  159.4713 N.3     1  UNL1       -0.2673
      2 C         141.1276  141.6856  159.4112 C.3     1  UNL1        0.1035
      3 C         142.3484  142.0991  160.1784 C.3     1  UNL1        0.1470
      4 C         143.5692  142.5128  160.9456 C.3     1  UNL1        0.1036
      5 N         144.3120  141.5058  161.7729 N.3     1  UNL1       -0.2653
      6 C         143.8339  140.0853  161.8330 C.3     1  UNL1        0.1036
      7 C         142.6131  139.6717  161.0658 C.3     1  UNL1        0.1470
      8 C         141.3923  139.2581  160.2986 C.3     1  UNL1        0.1035
      9 O         143.0911  141.0922  161.0057 O.3     1  UNL1       -0.3530
     10 C         139.4287  139.8514  158.7041 C.3     1  UNL1        0.0913
     11 C         138.0723  140.3146  159.1464 C.3     1  UNL1        0.1087
     12 N         137.3054  139.5246  160.1652 N.3     1  UNL1       -0.1780
     13 H         136.3387  139.8470  160.1209 H       1  UNL1        0.1488
     14 S         137.7108  139.5685  161.6087 S.O2    1  UNL1        0.0603
     15 O         138.0099  138.0992  161.5693 O.2     1  UNL1       -0.1530
     16 O         137.4116  141.0378  161.6481 O.2     1  UNL1       -0.1530
     17 C         138.9270  139.7002  165.9392 C.ar    1  UNL1        0.0685
     18 C         139.1921  138.4701  165.1228 C.ar    1  UNL1        0.0116
     19 C         138.7867  138.4262  163.6793 C.ar    1  UNL1        0.0206
     20 C         138.1162  139.6124  163.0522 C.ar    1  UNL1        0.1220
     21 C         137.8510  140.8425  163.8686 C.ar    1  UNL1        0.0206
     22 C         138.2564  140.8864  165.3121 C.ar    1  UNL1        0.0116
     23 N         139.7378  139.7880  168.8263 N.1     1  UNL1       -0.1908
     24 C         139.3324  139.7440  167.3827 C.1     1  UNL1        0.1004
     25 C         145.5328  141.9194  162.5400 C.3     1  UNL1        0.1202
     26 C         145.5295  141.8683  164.0392 C.3     1  UNL1        0.2228
     27 O         144.7559  142.8869  164.8227 O.3     1  UNL1       -0.4717
     28 C         143.3778  143.2830  164.3827 C.ar    1  UNL1        0.1659
     29 C         143.1161  144.6800  163.9030 C.ar    1  UNL1        0.0399
     30 C         141.7379  145.0761  163.4630 C.ar    1  UNL1        0.0135
     31 C         140.6213  144.0752  163.5027 C.ar    1  UNL1        0.0709
     32 C         140.8829  142.6783  163.9823 C.ar    1  UNL1        0.0430
     33 C         142.2611  142.2822  164.4223 C.ar    1  UNL1        0.1745
     34 F         142.5227  140.8852  164.9020 F       1  UNL1       -0.2009
     35 C         139.2431  144.4714  163.0627 C.1     1  UNL1        0.1005
     36 N         137.8649  144.8675  162.6226 N.1     1  UNL1       -0.1908
@<TRIPOS>BOND
     1    23    24    3
     2    24    17    1
     3    17    18   ar
     4    18    19   ar
     5    19    20   ar
     6    20    14    1
     7    14    15    2
     8    14    16    2
     9    14    12    1
    10    12    11    1
    11    11    10    1
    12    10     1    1
    13     1     2    1
    14     2     3    1
    15     3     4    1
    16     4     5    1
    17     5    25    1
    18    25    26    1
    19    26    27    1
    20    27    28    1
    21    28    29   ar
    22    29    30   ar
    23    30    31   ar
    24    31    35    1
    25    35    36    3
    26    31    32   ar
    27    32    33   ar
    28    33    34    1
    29     5     6    1
    30     6     7    1
    31     7     8    1
    32     7     9    1
    33    20    21   ar
    34    21    22   ar
    35    22    17   ar
    36     8     1    1
    37     9     3    1
    38    33    28   ar
    39    12    13    1
@<TRIPOS>MOLECULE
*****
 36 39 0 0 0
SMALL
GASTEIGER

@<TRIPOS>ATOM
      1 N         140.7271  139.5316  159.7066 N.3     1  UNL1       -0.2673
      2 C         141.2247  138.3955  160.5500 C.3     1  UNL1        0.1035
      3 C         142.3338  138.6218  161.5342 C.3     1  UNL1        0.1470
      4 C         143.4429  138.8481  162.5185 C.3     1  UNL1        0.1036
      5 N         144.0544  140.2106  162.6592 N.3     1  UNL1       -0.2653
      6 C         143.5566  141.3468  161.8157 C.3     1  UNL1        0.1036
      7 C         142.4476  141.1205  160.8315 C.3     1  UNL1        0.1470
      8 C         141.3385  140.8941  159.8473 C.3     1  UNL1        0.1035
      9 O         142.9452  139.9843  161.6750 O.3     1  UNL1       -0.3530
     10 C         139.6180  139.3053  158.7223 C.3     1  UNL1        0.0913
     11 C         138.3540  140.1072  158.8192 C.3     1  UNL1        0.1087
     12 N         137.3217  139.7585  159.8501 N.3     1  UNL1       -0.1780
     13 H         136.5596  140.4278  159.7418 H       1  UNL1        0.1488
     14 S         137.6874  139.7505  161.3048 S.O2    1  UNL1        0.0603
     15 O         138.0193  141.2113  161.2295 O.2     1  UNL1       -0.1530
     16 O         137.3555  138.2896  161.3802 O.2     1  UNL1       -0.1530
     17 C         138.7845  139.7263  165.6690 C.ar    1  UNL1        0.0685
     18 C         138.1187  140.9294  165.0697 C.ar    1  UNL1        0.0116
     19 C         137.7530  140.9375  163.6149 C.ar    1  UNL1        0.0206
     20 C         138.0531  139.7424  162.7595 C.ar    1  UNL1        0.1220
     21 C         138.7188  138.5392  163.3589 C.ar    1  UNL1        0.0206
     22 C         139.0845  138.5312  164.8136 C.ar    1  UNL1        0.0116
     23 N         139.5158  139.7101  168.5784 N.1     1  UNL1       -0.1908
     24 C         139.1501  139.7182  167.1237 C.1     1  UNL1        0.1004
     25 C         145.1634  140.4370  163.6434 C.3     1  UNL1        0.1202
     26 C         145.7648  141.8029  163.7947 C.3     1  UNL1        0.2228
     27 O         145.2296  142.7475  164.8296 O.3     1  UNL1       -0.4717
     28 C         143.7763  143.1189  164.8260 C.ar    1  UNL1        0.1659
     29 C         143.3091  144.3123  164.0466 C.ar    1  UNL1        0.0399
     30 C         141.8557  144.6837  164.0431 C.ar    1  UNL1        0.0135
     31 C         140.8697  143.8616  164.8189 C.ar    1  UNL1        0.0709
     32 C         141.3369  142.6682  165.5982 C.ar    1  UNL1        0.0430
     33 C         142.7902  142.2968  165.6018 C.ar    1  UNL1        0.1745
     34 F         143.2574  141.1034  166.3812 F       1  UNL1       -0.2009
     35 C         139.4164  144.2330  164.8153 C.1     1  UNL1        0.1005
     36 N         137.9631  144.6043  164.8117 N.1     1  UNL1       -0.1908
@<TRIPOS>BOND
     1    23    24    3
     2    24    17    1
     3    17    18   ar
     4    18    19   ar
     5    19    20   ar
     6    20    14    1
     7    14    15    2
     8    14    16    2
     9    14    12    1
    10    12    11    1
    11    11    10    1
    12    10     1    1
    13     1     2    1
    14     2     3    1
    15     3     4    1
    16     4     5    1
    17     5    25    1
    18    25    26    1
    19    26    27    1
    20    27    28    1
    21    28    29   ar
    22    29    30   ar
    23    30    31   ar
    24    31    35    1
    25    35    36    3
    26    31    32   ar
    27    32    33   ar
    28    33    34    1
    29     5     6    1
    30     6     7    1
    31     7     8    1
    32     7     9    1
    33    20    21   ar
    34    21    22   ar
    35    22    17   ar
    36     8     1    1
    37     9     3    1
    38    33    28   ar
    39    12    13    1
@<TRIPOS>MOLECULE
*****
 36 39 0 0 0
SMALL
GASTEIGER

@<TRIPOS>ATOM
      1 N         142.2079  139.8785  159.6241 N.3     1  UNL1       -0.2673
      2 C         143.1335  140.8601  160.2796 C.3     1  UNL1        0.1035
      3 C         142.6761  142.2652  160.5376 C.3     1  UNL1        0.1470
      4 C         142.2187  143.6703  160.7956 C.3     1  UNL1        0.1036
      5 N         140.8357  144.0937  160.3982 N.3     1  UNL1       -0.2653
      6 C         139.9101  143.1120  159.7427 C.3     1  UNL1        0.1036
      7 C         140.3675  141.7070  159.4847 C.3     1  UNL1        0.1470
      8 C         140.8249  140.3020  159.2267 C.3     1  UNL1        0.1035
      9 O         141.2931  142.6886  160.1401 O.3     1  UNL1       -0.3530
     10 C         142.6653  138.4734  159.3661 C.3     1  UNL1        0.0913
     11 C         143.0184  137.5766  160.5154 C.3     1  UNL1        0.1087
     12 N         142.0337  137.3570  161.6255 N.3     1  UNL1       -0.1780
     13 H         141.1039  137.4611  161.2191 H       1  UNL1        0.1488
     14 S         142.0728  138.2279  162.8461 S.O2    1  UNL1        0.0603
     15 O         143.5634  138.3381  162.7196 O.2     1  UNL1       -0.1530
     16 O         140.5823  138.1177  162.9725 O.2     1  UNL1       -0.1530
     17 C         142.1903  140.8407  166.5079 C.ar    1  UNL1        0.0685
     18 C         141.8801  139.3791  166.6392 C.ar    1  UNL1        0.0116
     19 C         141.8410  138.5080  165.4185 C.ar    1  UNL1        0.0206
     20 C         142.1120  139.0988  164.0667 C.ar    1  UNL1        0.1220
     21 C         142.4221  140.5606  163.9354 C.ar    1  UNL1        0.0206
     22 C         142.4613  141.4315  165.1560 C.ar    1  UNL1        0.0116
     23 N         142.2686  142.5826  168.9492 N.1     1  UNL1       -0.1908
     24 C         142.2294  141.7116  167.7285 C.1     1  UNL1        0.1004
     25 C         140.3782  145.4987  160.6562 C.3     1  UNL1        0.1202
     26 C         139.6882  145.8383  161.9441 C.3     1  UNL1        0.2228
     27 O         138.3793  145.1910  162.2870 O.3     1  UNL1       -0.4717
     28 C         138.3583  143.8994  163.0493 C.ar    1  UNL1        0.1659
     29 C         137.7087  142.6864  162.4521 C.ar    1  UNL1        0.0399
     30 C         137.6878  141.3947  163.2146 C.ar    1  UNL1        0.0135
     31 C         138.3165  141.3161  164.5742 C.ar    1  UNL1        0.0709
     32 C         138.9662  142.5291  165.1714 C.ar    1  UNL1        0.0430
     33 C         138.9871  143.8207  164.4090 C.ar    1  UNL1        0.1745
     34 F         139.6367  145.0337  165.0062 F       1  UNL1       -0.2009
     35 C         138.2956  140.0245  165.3365 C.1     1  UNL1        0.1005
     36 N         138.2747  138.7328  166.0989 N.1     1  UNL1       -0.1908
@<TRIPOS>BOND
     1    23    24    3
     2    24    17    1
     3    17    18   ar
     4    18    19   ar
     5    19    20   ar
     6    20    14    1
     7    14    15    2
     8    14    16    2
     9    14    12    1
    10    12    11    1
    11    11    10    1
    12    10     1    1
    13     1     2    1
    14     2     3    1
    15     3     4    1
    16     4     5    1
    17     5    25    1
    18    25    26    1
    19    26    27    1
    20    27    28    1
    21    28    29   ar
    22    29    30   ar
    23    30    31   ar
    24    31    35    1
    25    35    36    3
    26    31    32   ar
    27    32    33   ar
    28    33    34    1
    29     5     6    1
    30     6     7    1
    31     7     8    1
    32     7     9    1
    33    20    21   ar
    34    21    22   ar
    35    22    17   ar
    36     8     1    1
    37     9     3    1
    38    33    28   ar
    39    12    13    1
@<TRIPOS>MOLECULE
*****
 36 39 0 0 0
SMALL
GASTEIGER

@<TRIPOS>ATOM
      1 N         141.1921  140.3848  159.3443 N.3     1  UNL1       -0.2673
      2 C         139.7464  140.7774  159.4203 C.3     1  UNL1        0.1035
      3 C         139.3251  141.9222  160.2931 C.3     1  UNL1        0.1470
      4 C         138.9037  143.0670  161.1661 C.3     1  UNL1        0.1036
      5 N         139.9280  143.8191  161.9630 N.3     1  UNL1       -0.2653
      6 C         141.3738  143.4264  161.8869 C.3     1  UNL1        0.1036
      7 C         141.7951  142.2817  161.0140 C.3     1  UNL1        0.1470
      8 C         142.2165  141.1370  160.1411 C.3     1  UNL1        0.1035
      9 O         140.3494  142.6743  161.0900 O.3     1  UNL1       -0.3530
     10 C         141.6135  139.2400  158.4713 C.3     1  UNL1        0.0913
     11 C         142.8328  138.4394  158.8211 C.3     1  UNL1        0.1087
     12 N         142.7539  137.3745  159.8747 N.3     1  UNL1       -0.1780
     13 H         141.8830  136.8678  159.7166 H       1  UNL1        0.1488
     14 S         142.7777  137.7523  161.3261 S.O2    1  UNL1        0.0603
     15 O         144.2468  138.0388  161.2275 O.2     1  UNL1       -0.1530
     16 O         141.3087  137.4658  161.4248 O.2     1  UNL1       -0.1530
     17 C         142.8490  138.8857  165.6805 C.ar    1  UNL1        0.0685
     18 C         143.9604  139.3235  164.7733 C.ar    1  UNL1        0.0116
     19 C         143.9367  138.9457  163.3218 C.ar    1  UNL1        0.0206
     20 C         142.8015  138.1301  162.7776 C.ar    1  UNL1        0.1220
     21 C         141.6901  137.6923  163.6848 C.ar    1  UNL1        0.0206
     22 C         141.7138  138.0701  165.1363 C.ar    1  UNL1        0.0116
     23 N         142.8965  139.6413  168.5834 N.1     1  UNL1       -0.1908
     24 C         142.8728  139.2635  167.1319 C.1     1  UNL1        0.1004
     25 C         139.5067  144.9639  162.8359 C.3     1  UNL1        0.1202
     26 C         139.1917  144.7271  164.2832 C.3     1  UNL1        0.2228
     27 O         140.0476  143.8008  165.0952 O.3     1  UNL1       -0.4717
     28 C         139.5381  142.4390  165.4641 C.ar    1  UNL1        0.1659
     29 C         138.5367  141.7495  164.5857 C.ar    1  UNL1        0.0399
     30 C         138.0273  140.3877  164.9546 C.ar    1  UNL1        0.0135
     31 C         138.5193  139.7155  166.2020 C.ar    1  UNL1        0.0709
     32 C         139.5207  140.4050  167.0805 C.ar    1  UNL1        0.0430
     33 C         140.0301  141.7668  166.7116 C.ar    1  UNL1        0.1745
     34 F         141.0316  142.4563  167.5901 F       1  UNL1       -0.2009
     35 C         138.0099  138.3538  166.5709 C.1     1  UNL1        0.1005
     36 N         137.5005  136.9920  166.9399 N.1     1  UNL1       -0.1908
@<TRIPOS>BOND
     1    23    24    3
     2    24    17    1
     3    17    18   ar
     4    18    19   ar
     5    19    20   ar
     6    20    14    1
     7    14    15    2
     8    14    16    2
     9    14    12    1
    10    12    11    1
    11    11    10    1
    12    10     1    1
    13     1     2    1
    14     2     3    1
    15     3     4    1
    16     4     5    1
    17     5    25    1
    18    25    26    1
    19    26    27    1
    20    27    28    1
    21    28    29   ar
    22    29    30   ar
    23    30    31   ar
    24    31    35    1
    25    35    36    3
    26    31    32   ar
    27    32    33   ar
    28    33    34    1
    29     5     6    1
    30     6     7    1
    31     7     8    1
    32     7     9    1
    33    20    21   ar
    34    21    22   ar
    35    22    17   ar
    36     8     1    1
    37     9     3    1
    38    33    28   ar
    39    12    13    1
