@<TRIPOS>MOLECULE
*****
 29 33 0 0 0
SMALL
GASTEIGER

@<TRIPOS>ATOM
      1 C         145.0175  139.9804  163.8283 C.3     1  UNL1        0.0294
      2 C         145.4159  141.4127  164.0278 C.3     1  UNL1        0.0666
      3 S         145.0232  142.4483  163.0161 S.3     1  UNL1       -0.0756
      4 C         141.5156  144.0710  163.3741 C.ar    1  UNL1        0.2029
      5 N         142.4001  145.1840  163.8526 N.ar    1  UNL1       -0.1250
      6 N         143.8216  144.7116  163.7768 N.ar    1  UNL1       -0.1220
      7 C         143.8158  143.3066  163.2514 C.ar    1  UNL1        0.1933
      8 N         142.3906  142.9108  163.0025 N.ar    1  UNL1       -0.2860
      9 C         141.9225  141.5870  162.4747 C.3     1  UNL1        0.1341
     10 C         139.7531  146.2545  161.7080 C.3     1  UNL1        0.0556
     11 C         139.2088  145.1149  162.5174 C.ar    1  UNL1        0.1001
     12 N         137.7588  144.7789  162.7030 N.ar    1  UNL1       -0.2085
     13 C         137.6727  143.5676  163.5835 C.ar    1  UNL1        0.2849
     14 O         139.0695  143.1550  163.9421 O.2     1  UNL1       -0.4283
     15 C         140.0188  144.1113  163.2832 C.ar    1  UNL1        0.1964
     16 C         144.4765  139.1851  164.9793 C.3     1  UNL1        0.0730
     17 N         143.0109  139.2262  165.2962 N.3     1  UNL1       -0.2724
     18 C         141.9276  138.5015  164.5538 C.3     1  UNL1        0.0724
     19 C         140.6185  138.8266  165.2099 C.3     1  UNL1        0.0214
     20 C         139.4864  139.3250  166.0584 C.3     1  UNL1        0.0072
     21 C         140.8927  139.7522  166.3580 C.3     1  UNL1        0.0350
     22 C         142.3713  139.9992  166.4113 C.3     1  UNL1        0.0761
     23 C         140.5471  140.6145  167.5357 C.ar    1  UNL1       -0.0213
     24 C         139.7358  140.0518  168.6648 C.ar    1  UNL1       -0.0019
     25 C         139.3902  140.9142  169.8426 C.ar    1  UNL1        0.0293
     26 C         139.8559  142.3392  169.8911 C.ar    1  UNL1        0.1401
     27 F         139.5104  143.2015  171.0688 F       1  UNL1       -0.2042
     28 C         140.6673  142.9019  168.7618 C.ar    1  UNL1        0.0293
     29 C         141.0129  142.0396  167.5841 C.ar    1  UNL1       -0.0019
@<TRIPOS>BOND
     1    10    11    1
     2    11    12   ar
     3    12    13   ar
     4    13    14   ar
     5    14    15   ar
     6    15     4    1
     7     4     5   ar
     8     5     6   ar
     9     6     7   ar
    10     7     3    1
    11     3     2    1
    12     2     1    1
    13     1    16    1
    14    16    17    1
    15    17    18    1
    16    18    19    1
    17    19    20    1
    18    20    21    1
    19    21    23    1
    20    23    24   ar
    21    24    25   ar
    22    25    26   ar
    23    26    27    1
    24    26    28   ar
    25    28    29   ar
    26    21    22    1
    27     7     8   ar
    28     8     9    1
    29    15    11   ar
    30     8     4   ar
    31    22    17    1
    32    21    19    1
    33    29    23   ar
@<TRIPOS>MOLECULE
*****
 29 33 0 0 0
SMALL
GASTEIGER

@<TRIPOS>ATOM
      1 C         140.5645  145.2969  162.2751 C.3     1  UNL1        0.0294
      2 C         140.8959  144.6803  160.9485 C.3     1  UNL1        0.0666
      3 S         140.0986  143.5145  160.4432 S.3     1  UNL1       -0.0756
      4 C         138.4796  141.1246  163.0379 C.ar    1  UNL1        0.2029
      5 N         137.2980  141.9543  162.6312 N.ar    1  UNL1       -0.1250
      6 N         137.7606  142.9505  161.6098 N.ar    1  UNL1       -0.1220
      7 C         139.2282  142.7365  161.3851 C.ar    1  UNL1        0.1933
      8 N         139.6725  141.6081  162.2678 N.ar    1  UNL1       -0.2860
      9 C         141.0653  141.0594  162.3635 C.3     1  UNL1        0.1341
     10 C         138.9927  137.9669  162.3936 C.3     1  UNL1        0.0556
     11 C         138.7058  138.5562  163.7429 C.ar    1  UNL1        0.1001
     12 N         138.6043  137.7974  165.0328 N.ar    1  UNL1       -0.2085
     13 C         138.3058  138.7800  166.1262 C.ar    1  UNL1        0.2849
     14 O         138.2227  140.1459  165.5120 O.2     1  UNL1       -0.4283
     15 C         138.4699  140.0075  164.0390 C.ar    1  UNL1        0.1964
     16 C         141.6412  145.4932  163.3008 C.3     1  UNL1        0.0730
     17 N         142.6239  144.3940  163.5764 N.3     1  UNL1       -0.2724
     18 C         143.8822  144.1227  162.8063 C.3     1  UNL1        0.0724
     19 C         144.5569  142.9341  163.4245 C.3     1  UNL1        0.0214
     20 C         144.9872  141.7505  164.2392 C.3     1  UNL1        0.0072
     21 C         143.7155  142.4708  164.5766 C.3     1  UNL1        0.0350
     22 C         142.5209  143.3731  164.6706 C.3     1  UNL1        0.0761
     23 C         143.3466  141.6005  165.7413 C.ar    1  UNL1       -0.0213
     24 C         143.0601  142.2180  167.0779 C.ar    1  UNL1       -0.0019
     25 C         142.6912  141.3477  168.2427 C.ar    1  UNL1        0.0293
     26 C         142.6088  139.8599  168.0707 C.ar    1  UNL1        0.1401
     27 F         142.2399  138.9896  169.2354 F       1  UNL1       -0.2042
     28 C         142.8954  139.2423  166.7340 C.ar    1  UNL1        0.0293
     29 C         143.2643  140.1126  165.5694 C.ar    1  UNL1       -0.0019
@<TRIPOS>BOND
     1    10    11    1
     2    11    12   ar
     3    12    13   ar
     4    13    14   ar
     5    14    15   ar
     6    15     4    1
     7     4     5   ar
     8     5     6   ar
     9     6     7   ar
    10     7     3    1
    11     3     2    1
    12     2     1    1
    13     1    16    1
    14    16    17    1
    15    17    18    1
    16    18    19    1
    17    19    20    1
    18    20    21    1
    19    21    23    1
    20    23    24   ar
    21    24    25   ar
    22    25    26   ar
    23    26    27    1
    24    26    28   ar
    25    28    29   ar
    26    21    22    1
    27     7     8   ar
    28     8     9    1
    29    15    11   ar
    30     8     4   ar
    31    22    17    1
    32    21    19    1
    33    29    23   ar
@<TRIPOS>MOLECULE
*****
 29 33 0 0 0
SMALL
GASTEIGER

@<TRIPOS>ATOM
      1 C         139.7214  137.4893  164.5881 C.3     1  UNL1        0.0294
      2 C         139.8103  137.6340  163.0977 C.3     1  UNL1        0.0666
      3 S         141.1165  137.9976  162.4560 S.3     1  UNL1       -0.0756
      4 C         142.9978  141.2224  163.5172 C.ar    1  UNL1        0.2029
      5 N         143.5964  140.2159  164.4546 N.ar    1  UNL1       -0.1250
      6 N         142.9646  138.8854  164.1711 N.ar    1  UNL1       -0.1220
      7 C         141.9754  139.0696  163.0586 C.ar    1  UNL1        0.1933
      8 N         141.9960  140.5140  162.6545 N.ar    1  UNL1       -0.2860
      9 C         141.1612  141.1399  161.5769 C.3     1  UNL1        0.1341
     10 C         144.5047  142.7331  161.0481 C.3     1  UNL1        0.0556
     11 C         144.0334  143.3757  162.3190 C.ar    1  UNL1        0.1001
     12 N         144.1721  144.8255  162.6779 N.ar    1  UNL1       -0.2085
     13 C         143.5651  145.0271  164.0347 C.ar    1  UNL1        0.2849
     14 O         143.0514  143.7020  164.5143 O.2     1  UNL1       -0.4283
     15 C         143.3408  142.6814  163.4538 C.ar    1  UNL1        0.1964
     16 C         138.8511  138.4184  165.3813 C.3     1  UNL1        0.0730
     17 N         139.1995  139.8743  165.4764 N.3     1  UNL1       -0.2724
     18 C         138.8142  140.9392  164.4928 C.3     1  UNL1        0.0724
     19 C         139.3709  142.2440  164.9803 C.3     1  UNL1        0.0214
     20 C         140.0373  143.3755  165.7051 C.3     1  UNL1        0.0072
     21 C         140.1003  141.9855  166.2652 C.3     1  UNL1        0.0350
     22 C         139.9944  140.5210  166.5718 C.3     1  UNL1        0.0761
     23 C         140.9084  142.3415  167.4778 C.ar    1  UNL1       -0.0213
     24 C         140.2784  143.1145  168.5983 C.ar    1  UNL1       -0.0019
     25 C         141.0865  143.4706  169.8110 C.ar    1  UNL1        0.0293
     26 C         142.5244  143.0536  169.9030 C.ar    1  UNL1        0.1401
     27 F         143.3325  143.4096  171.1155 F       1  UNL1       -0.2042
     28 C         143.1543  142.2805  168.7823 C.ar    1  UNL1        0.0293
     29 C         142.3463  141.9245  167.5698 C.ar    1  UNL1       -0.0019
@<TRIPOS>BOND
     1    10    11    1
     2    11    12   ar
     3    12    13   ar
     4    13    14   ar
     5    14    15   ar
     6    15     4    1
     7     4     5   ar
     8     5     6   ar
     9     6     7   ar
    10     7     3    1
    11     3     2    1
    12     2     1    1
    13     1    16    1
    14    16    17    1
    15    17    18    1
    16    18    19    1
    17    19    20    1
    18    20    21    1
    19    21    23    1
    20    23    24   ar
    21    24    25   ar
    22    25    26   ar
    23    26    27    1
    24    26    28   ar
    25    28    29   ar
    26    21    22    1
    27     7     8   ar
    28     8     9    1
    29    15    11   ar
    30     8     4   ar
    31    22    17    1
    32    21    19    1
    33    29    23   ar
@<TRIPOS>MOLECULE
*****
 29 33 0 0 0
SMALL
GASTEIGER

@<TRIPOS>ATOM
      1 C         143.5890  144.7313  163.6872 C.3     1  UNL1        0.0294
      2 C         144.3601  144.0068  162.6239 C.3     1  UNL1        0.0666
      3 S         144.7325  142.5666  162.8171 S.3     1  UNL1       -0.0756
      4 C         141.7929  140.1385  163.5437 C.ar    1  UNL1        0.2029
      5 N         142.5496  140.0726  164.8371 N.ar    1  UNL1       -0.1250
      6 N         143.7429  140.9741  164.7223 N.ar    1  UNL1       -0.1220
      7 C         143.7236  141.5972  163.3580 C.ar    1  UNL1        0.1933
      8 N         142.5184  141.0807  162.6296 N.ar    1  UNL1       -0.2860
      9 C         142.1104  141.4430  161.2323 C.3     1  UNL1        0.1341
     10 C         141.1263  137.0511  164.3645 C.3     1  UNL1        0.0556
     11 C         140.2255  137.9739  163.5983 C.ar    1  UNL1        0.1001
     12 N         138.8601  137.6395  163.0749 N.ar    1  UNL1       -0.2085
     13 C         138.3226  138.8520  162.3742 C.ar    1  UNL1        0.2849
     14 O         139.3558  139.9356  162.4645 O.2     1  UNL1       -0.4283
     15 C         140.5318  139.3929  163.2210 C.ar    1  UNL1        0.1964
     16 C         142.1900  145.1975  163.4129 C.3     1  UNL1        0.0730
     17 N         141.0239  144.3314  163.7871 N.3     1  UNL1       -0.2724
     18 C         139.7390  144.2044  163.0235 C.3     1  UNL1        0.0724
     19 C         138.8589  143.2347  163.7550 C.3     1  UNL1        0.0214
     20 C         138.2195  142.2484  164.6868 C.3     1  UNL1        0.0072
     21 C         139.5998  142.7623  164.9707 C.3     1  UNL1        0.0350
     22 C         140.9378  143.4401  164.9905 C.3     1  UNL1        0.0761
     23 C         139.8024  141.9785  166.2334 C.ar    1  UNL1       -0.0213
     24 C         140.5596  142.5834  167.3783 C.ar    1  UNL1       -0.0019
     25 C         140.7621  141.7996  168.6412 C.ar    1  UNL1        0.0293
     26 C         140.2075  140.4109  168.7591 C.ar    1  UNL1        0.1401
     27 F         140.4100  139.6271  170.0218 F       1  UNL1       -0.2042
     28 C         139.4502  139.8060  167.6141 C.ar    1  UNL1        0.0293
     29 C         139.2477  140.5898  166.3513 C.ar    1  UNL1       -0.0019
@<TRIPOS>BOND
     1    10    11    1
     2    11    12   ar
     3    12    13   ar
     4    13    14   ar
     5    14    15   ar
     6    15     4    1
     7     4     5   ar
     8     5     6   ar
     9     6     7   ar
    10     7     3    1
    11     3     2    1
    12     2     1    1
    13     1    16    1
    14    16    17    1
    15    17    18    1
    16    18    19    1
    17    19    20    1
    18    20    21    1
    19    21    23    1
    20    23    24   ar
    21    24    25   ar
    22    25    26   ar
    23    26    27    1
    24    26    28   ar
    25    28    29   ar
    26    21    22    1
    27     7     8   ar
    28     8     9    1
    29    15    11   ar
    30     8     4   ar
    31    22    17    1
    32    21    19    1
    33    29    23   ar
@<TRIPOS>MOLECULE
*****
 29 33 0 0 0
SMALL
GASTEIGER

@<TRIPOS>ATOM
      1 C         143.3032  138.9851  161.3229 C.3     1  UNL1        0.0294
      2 C         143.2471  138.1723  162.5824 C.3     1  UNL1        0.0666
      3 S         142.0245  138.2174  163.4503 S.3     1  UNL1       -0.0756
      4 C         141.6421  139.4434  167.1130 C.ar    1  UNL1        0.2029
      5 N         143.0259  138.8655  167.1438 N.ar    1  UNL1       -0.1250
      6 N         143.3376  138.3359  165.7755 N.ar    1  UNL1       -0.1220
      7 C         142.1464  138.5865  164.8990 C.ar    1  UNL1        0.1933
      8 N         141.0985  139.2710  165.7257 N.ar    1  UNL1       -0.2860
      9 C         139.7447  139.7065  165.2487 C.3     1  UNL1        0.1341
     10 C         142.7905  141.8604  168.9809 C.3     1  UNL1        0.0556
     11 C         141.4551  141.1926  169.1256 C.ar    1  UNL1        0.1001
     12 N         140.4132  141.5186  170.1542 N.ar    1  UNL1       -0.2085
     13 C         139.2414  140.6091  169.9314 C.ar    1  UNL1        0.2849
     14 O         139.5591  139.7211  168.7651 O.2     1  UNL1       -0.4283
     15 C         140.9273  140.0817  168.2671 C.ar    1  UNL1        0.1964
     16 C         144.1335  140.2333  161.2722 C.3     1  UNL1        0.0730
     17 N         144.1603  141.1646  162.4478 N.3     1  UNL1       -0.2724
     18 C         145.3685  141.5234  163.2610 C.3     1  UNL1        0.0724
     19 C         144.9384  142.4812  164.3324 C.3     1  UNL1        0.0214
     20 C         144.2246  143.4042  165.2749 C.3     1  UNL1        0.0072
     21 C         143.4644  142.7143  164.1813 C.3     1  UNL1        0.0350
     22 C         142.9835  141.9006  163.0165 C.3     1  UNL1        0.0761
     23 C         142.1287  143.3060  164.5213 C.ar    1  UNL1       -0.0213
     24 C         141.5440  144.3838  163.6574 C.ar    1  UNL1       -0.0019
     25 C         140.2082  144.9756  163.9974 C.ar    1  UNL1        0.0293
     26 C         139.4572  144.4895  165.2015 C.ar    1  UNL1        0.1401
     27 F         138.1214  145.0812  165.5416 F       1  UNL1       -0.2042
     28 C         140.0419  143.4117  166.0655 C.ar    1  UNL1        0.0293
     29 C         141.3777  142.8199  165.7254 C.ar    1  UNL1       -0.0019
@<TRIPOS>BOND
     1    10    11    1
     2    11    12   ar
     3    12    13   ar
     4    13    14   ar
     5    14    15   ar
     6    15     4    1
     7     4     5   ar
     8     5     6   ar
     9     6     7   ar
    10     7     3    1
    11     3     2    1
    12     2     1    1
    13     1    16    1
    14    16    17    1
    15    17    18    1
    16    18    19    1
    17    19    20    1
    18    20    21    1
    19    21    23    1
    20    23    24   ar
    21    24    25   ar
    22    25    26   ar
    23    26    27    1
    24    26    28   ar
    25    28    29   ar
    26    21    22    1
    27     7     8   ar
    28     8     9    1
    29    15    11   ar
    30     8     4   ar
    31    22    17    1
    32    21    19    1
    33    29    23   ar
@<TRIPOS>MOLECULE
*****
 29 33 0 0 0
SMALL
GASTEIGER

@<TRIPOS>ATOM
      1 C         143.0969  138.9958  163.1606 C.3     1  UNL1        0.0294
      2 C         144.4475  139.4179  163.6585 C.3     1  UNL1        0.0666
      3 S         144.9033  140.8357  163.4797 S.3     1  UNL1       -0.0756
      4 C         142.2335  143.6366  163.1765 C.ar    1  UNL1        0.2029
      5 N         142.6216  143.7611  164.6201 N.ar    1  UNL1       -0.1250
      6 N         143.6689  142.7271  164.9093 N.ar    1  UNL1       -0.1220
      7 C         143.9281  141.9635  163.6446 C.ar    1  UNL1        0.1933
      8 N         143.0410  142.5257  162.5736 N.ar    1  UNL1       -0.2860
      9 C         142.9733  142.0587  161.1497 C.3     1  UNL1        0.1341
     10 C         139.3744  144.6359  164.3918 C.3     1  UNL1        0.0556
     11 C         139.9023  144.9352  163.0200 C.ar    1  UNL1        0.1001
     12 N         139.2087  145.7463  161.9660 N.ar    1  UNL1       -0.2085
     13 C         140.0942  145.7883  160.7560 C.ar    1  UNL1        0.2849
     14 O         141.3350  145.0032  161.0622 O.2     1  UNL1       -0.4283
     15 C         141.2164  144.4759  162.4614 C.ar    1  UNL1        0.1964
     16 C         142.3330  137.9247  163.8811 C.3     1  UNL1        0.0730
     17 N         141.1025  138.2778  164.6629 N.3     1  UNL1       -0.2724
     18 C         139.7485  137.6515  164.5062 C.3     1  UNL1        0.0724
     19 C         138.8191  138.3058  165.4851 C.3     1  UNL1        0.0214
     20 C         138.1433  139.1269  166.5429 C.3     1  UNL1        0.0072
     21 C         139.5987  139.3364  166.2467 C.3     1  UNL1        0.0350
     22 C         141.0099  139.3191  165.7385 C.3     1  UNL1        0.0761
     23 C         139.8104  140.4216  167.2604 C.ar    1  UNL1       -0.0213
     24 C         140.3437  141.7560  166.8304 C.ar    1  UNL1       -0.0019
     25 C         140.5554  142.8412  167.8441 C.ar    1  UNL1        0.0293
     26 C         140.2337  142.5919  169.2879 C.ar    1  UNL1        0.1401
     27 F         140.4454  143.6770  170.3016 F       1  UNL1       -0.2042
     28 C         139.7004  141.2574  169.7179 C.ar    1  UNL1        0.0293
     29 C         139.4887  140.1723  168.7042 C.ar    1  UNL1       -0.0019
@<TRIPOS>BOND
     1    10    11    1
     2    11    12   ar
     3    12    13   ar
     4    13    14   ar
     5    14    15   ar
     6    15     4    1
     7     4     5   ar
     8     5     6   ar
     9     6     7   ar
    10     7     3    1
    11     3     2    1
    12     2     1    1
    13     1    16    1
    14    16    17    1
    15    17    18    1
    16    18    19    1
    17    19    20    1
    18    20    21    1
    19    21    23    1
    20    23    24   ar
    21    24    25   ar
    22    25    26   ar
    23    26    27    1
    24    26    28   ar
    25    28    29   ar
    26    21    22    1
    27     7     8   ar
    28     8     9    1
    29    15    11   ar
    30     8     4   ar
    31    22    17    1
    32    21    19    1
    33    29    23   ar
@<TRIPOS>MOLECULE
*****
 29 33 0 0 0
SMALL
GASTEIGER

@<TRIPOS>ATOM
      1 C         137.4231  141.3939  163.3843 C.3     1  UNL1        0.0294
      2 C         137.6739  142.6792  162.6528 C.3     1  UNL1        0.0666
      3 S         138.5524  143.7307  163.2635 S.3     1  UNL1       -0.0756
      4 C         142.1178  142.5379  164.2276 C.ar    1  UNL1        0.2029
      5 N         141.5792  142.9520  165.5649 N.ar    1  UNL1       -0.1250
      6 N         140.1781  143.4493  165.3665 N.ar    1  UNL1       -0.1220
      7 C         139.8507  143.3424  163.9066 C.ar    1  UNL1        0.1933
      8 N         141.0496  142.7791  163.2028 N.ar    1  UNL1       -0.2860
      9 C         141.1605  142.5052  161.7321 C.3     1  UNL1        0.1341
     10 C         144.4475  143.9463  162.4280 C.3     1  UNL1        0.0556
     11 C         144.5556  142.6276  163.1347 C.ar    1  UNL1        0.1001
     12 N         145.7535  141.7249  163.1383 N.ar    1  UNL1       -0.2085
     13 C         145.4230  140.5196  163.9678 C.ar    1  UNL1        0.2849
     14 O         144.0210  140.6774  164.4768 O.2     1  UNL1       -0.4283
     15 C         143.4848  141.9803  163.9619 C.ar    1  UNL1        0.1964
     16 C         138.0526  140.1209  162.9015 C.3     1  UNL1        0.0730
     17 N         139.2569  139.5666  163.6031 N.3     1  UNL1       -0.2724
     18 C         140.2872  138.6575  163.0014 C.3     1  UNL1        0.0724
     19 C         141.3094  138.3530  164.0561 C.3     1  UNL1        0.0214
     20 C         142.1531  138.2334  165.2905 C.3     1  UNL1        0.0072
     21 C         140.9109  139.0739  165.3097 C.3     1  UNL1        0.0350
     22 C         139.6424  139.8239  165.0297 C.3     1  UNL1        0.0761
     23 C         141.0366  139.5070  166.7403 C.ar    1  UNL1       -0.0213
     24 C         139.8188  139.9356  167.5039 C.ar    1  UNL1       -0.0019
     25 C         139.9445  140.3687  168.9346 C.ar    1  UNL1        0.0293
     26 C         141.2881  140.3732  169.6015 C.ar    1  UNL1        0.1401
     27 F         141.4139  140.8063  171.0321 F       1  UNL1       -0.2042
     28 C         142.5060  139.9446  168.8378 C.ar    1  UNL1        0.0293
     29 C         142.3802  139.5115  167.4072 C.ar    1  UNL1       -0.0019
@<TRIPOS>BOND
     1    10    11    1
     2    11    12   ar
     3    12    13   ar
     4    13    14   ar
     5    14    15   ar
     6    15     4    1
     7     4     5   ar
     8     5     6   ar
     9     6     7   ar
    10     7     3    1
    11     3     2    1
    12     2     1    1
    13     1    16    1
    14    16    17    1
    15    17    18    1
    16    18    19    1
    17    19    20    1
    18    20    21    1
    19    21    23    1
    20    23    24   ar
    21    24    25   ar
    22    25    26   ar
    23    26    27    1
    24    26    28   ar
    25    28    29   ar
    26    21    22    1
    27     7     8   ar
    28     8     9    1
    29    15    11   ar
    30     8     4   ar
    31    22    17    1
    32    21    19    1
    33    29    23   ar
@<TRIPOS>MOLECULE
*****
 29 33 0 0 0
SMALL
GASTEIGER

@<TRIPOS>ATOM
      1 C         141.1720  145.1155  160.1105 C.3     1  UNL1        0.0294
      2 C         140.0994  144.3265  159.4198 C.3     1  UNL1        0.0666
      3 S         139.9845  142.8497  159.6565 S.3     1  UNL1       -0.0756
      4 C         138.5169  141.1060  162.7982 C.ar    1  UNL1        0.2029
      5 N         137.3710  141.9848  162.3925 N.ar    1  UNL1       -0.1250
      6 N         137.7812  142.7449  161.1663 N.ar    1  UNL1       -0.1220
      7 C         139.1808  142.3359  160.8141 C.ar    1  UNL1        0.1933
      8 N         139.6354  141.3230  161.8227 N.ar    1  UNL1       -0.2860
      9 C         140.9736  140.6460  161.8507 C.3     1  UNL1        0.1341
     10 C         138.6613  137.8487  162.6601 C.3     1  UNL1        0.0556
     11 C         138.6065  138.6767  163.9097 C.ar    1  UNL1        0.1001
     12 N         138.6085  138.1527  165.3152 N.ar    1  UNL1       -0.2085
     13 C         138.5434  139.3261  166.2474 C.ar    1  UNL1        0.2849
     14 O         138.5011  140.5752  165.4180 O.2     1  UNL1       -0.4283
     15 C         138.5402  140.1738  163.9732 C.ar    1  UNL1        0.1964
     16 C         141.8347  144.5655  161.3385 C.3     1  UNL1        0.0730
     17 N         141.0670  144.4633  162.6231 N.3     1  UNL1       -0.2724
     18 C         139.7885  145.1785  162.9455 C.3     1  UNL1        0.0724
     19 C         139.3743  144.7852  164.3325 C.3     1  UNL1        0.0214
     20 C         139.2207  144.2176  165.7124 C.3     1  UNL1        0.0072
     21 C         140.3968  143.8269  164.8674 C.3     1  UNL1        0.0350
     22 C         141.4430  143.6280  163.8109 C.3     1  UNL1        0.0761
     23 C         141.0187  142.9100  165.8785 C.ar    1  UNL1       -0.0213
     24 C         140.4382  142.8107  167.2581 C.ar    1  UNL1       -0.0019
     25 C         141.0601  141.8937  168.2693 C.ar    1  UNL1        0.0293
     26 C         142.2624  141.0760  167.9009 C.ar    1  UNL1        0.1401
     27 F         142.8843  140.1590  168.9120 F       1  UNL1       -0.2042
     28 C         142.8429  141.1752  166.5212 C.ar    1  UNL1        0.0293
     29 C         142.2210  142.0922  165.5101 C.ar    1  UNL1       -0.0019
@<TRIPOS>BOND
     1    10    11    1
     2    11    12   ar
     3    12    13   ar
     4    13    14   ar
     5    14    15   ar
     6    15     4    1
     7     4     5   ar
     8     5     6   ar
     9     6     7   ar
    10     7     3    1
    11     3     2    1
    12     2     1    1
    13     1    16    1
    14    16    17    1
    15    17    18    1
    16    18    19    1
    17    19    20    1
    18    20    21    1
    19    21    23    1
    20    23    24   ar
    21    24    25   ar
    22    25    26   ar
    23    26    27    1
    24    26    28   ar
    25    28    29   ar
    26    21    22    1
    27     7     8   ar
    28     8     9    1
    29    15    11   ar
    30     8     4   ar
    31    22    17    1
    32    21    19    1
    33    29    23   ar
@<TRIPOS>MOLECULE
*****
 29 33 0 0 0
SMALL
GASTEIGER

@<TRIPOS>ATOM
      1 C         141.9216  145.3999  163.5910 C.3     1  UNL1        0.0294
      2 C         140.6800  145.5093  162.7564 C.3     1  UNL1        0.0666
      3 S         139.4262  144.8039  163.1813 S.3     1  UNL1       -0.0756
      4 C         139.6829  141.1964  164.5902 C.ar    1  UNL1        0.2029
      5 N         139.6060  141.9972  165.8562 N.ar    1  UNL1       -0.1250
      6 N         139.5005  143.4460  165.4825 N.ar    1  UNL1       -0.1220
      7 C         139.5121  143.5407  163.9856 C.ar    1  UNL1        0.1933
      8 N         139.6249  142.1503  163.4341 N.ar    1  UNL1       -0.2860
      9 C         139.6714  141.7790  161.9815 C.3     1  UNL1        0.1341
     10 C         138.0776  139.0303  166.4289 C.3     1  UNL1        0.0556
     11 C         139.0598  138.7081  165.3419 C.ar    1  UNL1        0.1001
     12 N         139.4765  137.3336  164.9093 N.ar    1  UNL1       -0.2085
     13 C         140.4719  137.4798  163.7967 C.ar    1  UNL1        0.2849
     14 O         140.6704  138.9445  163.5418 O.2     1  UNL1       -0.4283
     15 C         139.7976  139.7036  164.4968 C.ar    1  UNL1        0.1964
     16 C         143.0670  144.5516  163.1238 C.3     1  UNL1        0.0730
     17 N         143.2332  143.1581  163.6534 N.3     1  UNL1       -0.2724
     18 C         143.6193  141.9505  162.8519 C.3     1  UNL1        0.0724
     19 C         143.6671  140.7736  163.7807 C.3     1  UNL1        0.0214
     20 C         143.6328  139.8069  164.9271 C.3     1  UNL1        0.0072
     21 C         143.3107  141.2539  165.1562 C.3     1  UNL1        0.0350
     22 C         143.0425  142.7276  165.0776 C.3     1  UNL1        0.0761
     23 C         143.0526  141.1258  166.6283 C.ar    1  UNL1       -0.0213
     24 C         143.2108  142.3186  167.5239 C.ar    1  UNL1       -0.0019
     25 C         142.9527  142.1907  168.9961 C.ar    1  UNL1        0.0293
     26 C         142.5364  140.8698  169.5725 C.ar    1  UNL1        0.1401
     27 F         142.2783  140.7418  171.0446 F       1  UNL1       -0.2042
     28 C         142.3782  139.6770  168.6768 C.ar    1  UNL1        0.0293
     29 C         142.6363  139.8050  167.2047 C.ar    1  UNL1       -0.0019
@<TRIPOS>BOND
     1    10    11    1
     2    11    12   ar
     3    12    13   ar
     4    13    14   ar
     5    14    15   ar
     6    15     4    1
     7     4     5   ar
     8     5     6   ar
     9     6     7   ar
    10     7     3    1
    11     3     2    1
    12     2     1    1
    13     1    16    1
    14    16    17    1
    15    17    18    1
    16    18    19    1
    17    19    20    1
    18    20    21    1
    19    21    23    1
    20    23    24   ar
    21    24    25   ar
    22    25    26   ar
    23    26    27    1
    24    26    28   ar
    25    28    29   ar
    26    21    22    1
    27     7     8   ar
    28     8     9    1
    29    15    11   ar
    30     8     4   ar
    31    22    17    1
    32    21    19    1
    33    29    23   ar
