@<TRIPOS>MOLECULE
*****
 23 25 0 0 0
SMALL
GASTEIGER

@<TRIPOS>ATOM
      1 C         139.7007  140.5678  166.3587 C.ar    1  UNL1        0.0382
      2 C         138.6537  139.5638  165.9767 C.ar    1  UNL1        0.0966
      3 N         138.1657  138.9027  167.2315 N.ar    1  UNL1       -0.2474
      4 C         137.1165  137.8338  167.3142 C.3     1  UNL1        0.1538
      5 N         138.9110  139.4980  168.3892 N.ar    1  UNL1       -0.1692
      6 C         139.8597  140.5271  167.8497 C.ar    1  UNL1        0.1023
      7 C         140.8019  141.3679  168.6592 C.ar    1  UNL1        0.0195
      8 C         142.1915  140.8780  168.9403 C.ar    1  UNL1        0.0039
      9 C         143.1339  141.7187  169.7497 C.ar    1  UNL1        0.0297
     10 C         142.6865  143.0494  170.2782 C.ar    1  UNL1        0.1401
     11 F         143.6287  143.8902  171.0876 F       1  UNL1       -0.2042
     12 C         141.2969  143.5393  169.9971 C.ar    1  UNL1        0.0297
     13 C         140.3546  142.6985  169.1876 C.ar    1  UNL1        0.0039
     14 C         140.7531  143.7544  164.2402 C.ar    1  UNL1        0.0749
     15 C         139.9978  142.8657  165.1835 C.ar    1  UNL1        0.0162
     16 C         140.4561  141.4564  165.4154 C.ar    1  UNL1        0.0058
     17 C         141.6697  140.9357  164.7041 C.ar    1  UNL1        0.0208
     18 C         142.4250  141.8243  163.7608 C.ar    1  UNL1        0.0985
     19 N         141.9667  143.2337  163.5289 N.ar    1  UNL1       -0.2468
     20 C         140.2948  145.1637  164.0083 C.3     1  UNL1        0.1152
     21 C         140.0541  146.0755  161.5874 C.3     1  UNL1        0.0862
     22 N         140.8447  145.9511  162.8561 N.3     1  UNL1       -0.2913
     23 H         141.0052  146.8989  163.1971 H       1  UNL1        0.1236
@<TRIPOS>BOND
     1    21    22    1
     2    22    20    1
     3    20    14    1
     4    14    15   ar
     5    15    16   ar
     6    16     1    1
     7     1     2   ar
     8     2     3   ar
     9     3     4    1
    10     3     5   ar
    11     5     6   ar
    12     6     7    1
    13     7     8   ar
    14     8     9   ar
    15     9    10   ar
    16    10    11    1
    17    10    12   ar
    18    12    13   ar
    19    16    17   ar
    20    17    18   ar
    21    18    19   ar
    22    19    14   ar
    23     6     1   ar
    24    13     7   ar
    25    22    23    1
@<TRIPOS>MOLECULE
*****
 23 25 0 0 0
SMALL
GASTEIGER

@<TRIPOS>ATOM
      1 C         139.6276  141.2556  166.2354 C.ar    1  UNL1        0.0382
      2 C         138.6993  140.1983  165.7156 C.ar    1  UNL1        0.0966
      3 N         138.5236  139.1666  166.7903 N.ar    1  UNL1       -0.2474
      4 C         137.6768  137.9320  166.6973 C.3     1  UNL1        0.1538
      5 N         139.3434  139.5864  167.9743 N.ar    1  UNL1       -0.1692
      6 C         140.0257  140.8774  167.6313 C.ar    1  UNL1        0.1023
      7 C         140.9448  141.6540  168.5270 C.ar    1  UNL1        0.0195
      8 C         140.4432  142.8754  169.2387 C.ar    1  UNL1        0.0039
      9 C         141.3621  143.6520  170.1345 C.ar    1  UNL1        0.0297
     10 C         142.7829  143.2072  170.3185 C.ar    1  UNL1        0.1401
     11 F         143.7019  143.9837  171.2142 F       1  UNL1       -0.2042
     12 C         143.2845  141.9858  169.6067 C.ar    1  UNL1        0.0297
     13 C         142.3654  141.2092  168.7110 C.ar    1  UNL1        0.0039
     14 C         141.9646  143.8354  164.3291 C.ar    1  UNL1        0.0749
     15 C         141.5134  142.6143  165.0744 C.ar    1  UNL1        0.0162
     16 C         140.0788  142.4767  165.4901 C.ar    1  UNL1        0.0058
     17 C         139.0952  143.5602  165.1606 C.ar    1  UNL1        0.0208
     18 C         139.5464  144.7813  164.4153 C.ar    1  UNL1        0.0985
     19 N         140.9810  144.9189  163.9996 N.ar    1  UNL1       -0.2468
     20 C         143.3992  143.9729  163.9134 C.3     1  UNL1        0.1152
     21 C         143.3404  143.4458  161.3701 C.3     1  UNL1        0.0862
     22 N         143.7382  144.3473  162.5011 N.3     1  UNL1       -0.2913
     23 H         143.3023  145.2522  162.3236 H       1  UNL1        0.1236
@<TRIPOS>BOND
     1    21    22    1
     2    22    20    1
     3    20    14    1
     4    14    15   ar
     5    15    16   ar
     6    16     1    1
     7     1     2   ar
     8     2     3   ar
     9     3     4    1
    10     3     5   ar
    11     5     6   ar
    12     6     7    1
    13     7     8   ar
    14     8     9   ar
    15     9    10   ar
    16    10    11    1
    17    10    12   ar
    18    12    13   ar
    19    16    17   ar
    20    17    18   ar
    21    18    19   ar
    22    19    14   ar
    23     6     1   ar
    24    13     7   ar
    25    22    23    1
@<TRIPOS>MOLECULE
*****
 23 25 0 0 0
SMALL
GASTEIGER

@<TRIPOS>ATOM
      1 C         140.0827  139.9109  167.0449 C.ar    1  UNL1        0.0382
      2 C         139.3648  139.8324  168.3596 C.ar    1  UNL1        0.0966
      3 N         140.3535  140.1350  169.4463 N.ar    1  UNL1       -0.2474
      4 C         140.0641  140.1666  170.9178 C.3     1  UNL1        0.1538
      5 N         141.6824  140.4005  168.8032 N.ar    1  UNL1       -0.1692
      6 C         141.5150  140.2620  167.3190 C.ar    1  UNL1        0.1023
      7 C         142.5910  140.4428  166.2897 C.ar    1  UNL1        0.0195
      8 C         142.9907  141.8223  165.8569 C.ar    1  UNL1        0.0039
      9 C         144.0667  142.0033  164.8276 C.ar    1  UNL1        0.0297
     10 C         144.7431  140.8046  164.2311 C.ar    1  UNL1        0.1401
     11 F         145.8191  140.9854  163.2018 F       1  UNL1       -0.2042
     12 C         144.3435  139.4251  164.6639 C.ar    1  UNL1        0.0297
     13 C         143.2675  139.2443  165.6932 C.ar    1  UNL1        0.0039
     14 C         138.0631  140.5300  163.6851 C.ar    1  UNL1        0.0749
     15 C         138.6708  140.7618  165.0367 C.ar    1  UNL1        0.0162
     16 C         139.4749  139.6790  165.6932 C.ar    1  UNL1        0.0058
     17 C         139.6711  138.3643  164.9982 C.ar    1  UNL1        0.0208
     18 C         139.0633  138.1325  163.6466 C.ar    1  UNL1        0.0985
     19 N         138.2593  139.2153  162.9901 N.ar    1  UNL1       -0.2468
     20 C         137.2590  141.6128  163.0285 C.3     1  UNL1        0.1152
     21 C         137.7922  144.1427  163.2839 C.3     1  UNL1        0.0862
     22 N         137.9382  142.8539  162.5303 N.3     1  UNL1       -0.2913
     23 H         138.9363  142.6476  162.4904 H       1  UNL1        0.1236
@<TRIPOS>BOND
     1    21    22    1
     2    22    20    1
     3    20    14    1
     4    14    15   ar
     5    15    16   ar
     6    16     1    1
     7     1     2   ar
     8     2     3   ar
     9     3     4    1
    10     3     5   ar
    11     5     6   ar
    12     6     7    1
    13     7     8   ar
    14     8     9   ar
    15     9    10   ar
    16    10    11    1
    17    10    12   ar
    18    12    13   ar
    19    16    17   ar
    20    17    18   ar
    21    18    19   ar
    22    19    14   ar
    23     6     1   ar
    24    13     7   ar
    25    22    23    1
@<TRIPOS>MOLECULE
*****
 23 25 0 0 0
SMALL
GASTEIGER

@<TRIPOS>ATOM
      1 C         140.6786  142.2540  167.2877 C.ar    1  UNL1        0.0382
      2 C         140.5671  142.9786  168.5963 C.ar    1  UNL1        0.0966
      3 N         140.5033  141.9537  169.6897 N.ar    1  UNL1       -0.2474
      4 C         140.3878  142.2370  171.1582 C.3     1  UNL1        0.1538
      5 N         140.5754  140.5956  169.0568 N.ar    1  UNL1       -0.1692
      6 C         140.6837  140.7812  167.5723 C.ar    1  UNL1        0.1023
      7 C         140.7801  139.6863  166.5516 C.ar    1  UNL1        0.0195
      8 C         142.1231  139.1558  166.1453 C.ar    1  UNL1        0.0039
      9 C         142.2197  138.0609  165.1246 C.ar    1  UNL1        0.0297
     10 C         140.9731  137.4964  164.5101 C.ar    1  UNL1        0.1401
     11 F         141.0695  136.4015  163.4894 F       1  UNL1       -0.2042
     12 C         139.6301  138.0269  164.9164 C.ar    1  UNL1        0.0297
     13 C         139.5337  139.1218  165.9371 C.ar    1  UNL1        0.0039
     14 C         139.6323  144.1046  163.9365 C.ar    1  UNL1        0.0749
     15 C         139.5419  143.4682  165.2917 C.ar    1  UNL1        0.0162
     16 C         140.7690  142.8904  165.9324 C.ar    1  UNL1        0.0058
     17 C         142.0865  142.9489  165.2177 C.ar    1  UNL1        0.0208
     18 C         142.1769  143.5853  163.8624 C.ar    1  UNL1        0.0985
     19 N         140.9498  144.1631  163.2218 N.ar    1  UNL1       -0.2468
     20 C         138.4053  144.6824  163.2959 C.3     1  UNL1        0.1152
     21 C         137.9950  142.4466  162.0378 C.3     1  UNL1        0.0862
     22 N         137.6434  143.8847  162.2795 N.3     1  UNL1       -0.2913
     23 H         136.6639  143.9046  162.5635 H       1  UNL1        0.1236
@<TRIPOS>BOND
     1    21    22    1
     2    22    20    1
     3    20    14    1
     4    14    15   ar
     5    15    16   ar
     6    16     1    1
     7     1     2   ar
     8     2     3   ar
     9     3     4    1
    10     3     5   ar
    11     5     6   ar
    12     6     7    1
    13     7     8   ar
    14     8     9   ar
    15     9    10   ar
    16    10    11    1
    17    10    12   ar
    18    12    13   ar
    19    16    17   ar
    20    17    18   ar
    21    18    19   ar
    22    19    14   ar
    23     6     1   ar
    24    13     7   ar
    25    22    23    1
@<TRIPOS>MOLECULE
*****
 23 25 0 0 0
SMALL
GASTEIGER

@<TRIPOS>ATOM
      1 C         139.9858  140.9635  167.1778 C.ar    1  UNL1        0.0382
      2 C         140.0340  140.5100  168.6068 C.ar    1  UNL1        0.0966
      3 N         140.4236  141.6855  169.4533 N.ar    1  UNL1       -0.2474
      4 C         140.5912  141.6816  170.9439 C.3     1  UNL1        0.1538
      5 N         140.6162  142.8655  168.5474 N.ar    1  UNL1       -0.1692
      6 C         140.3456  142.4193  167.1411 C.ar    1  UNL1        0.1023
      7 C         140.4215  143.2781  165.9137 C.ar    1  UNL1        0.0195
      8 C         139.2395  144.1051  165.5026 C.ar    1  UNL1        0.0039
      9 C         139.3153  144.9639  164.2752 C.ar    1  UNL1        0.0297
     10 C         140.5733  144.9958  163.4587 C.ar    1  UNL1        0.1401
     11 F         140.6492  145.8546  162.2312 F       1  UNL1       -0.2042
     12 C         141.7553  144.1688  163.8697 C.ar    1  UNL1        0.0297
     13 C         141.6794  143.3100  165.0972 C.ar    1  UNL1        0.0039
     14 C         140.2173  138.1591  164.3793 C.ar    1  UNL1        0.0749
     15 C         140.5643  139.0116  165.5636 C.ar    1  UNL1        0.0162
     16 C         139.6387  140.1110  165.9934 C.ar    1  UNL1        0.0058
     17 C         138.3661  140.3579  165.2388 C.ar    1  UNL1        0.0208
     18 C         138.0191  139.5054  164.0544 C.ar    1  UNL1        0.0985
     19 N         138.9446  138.4060  163.6247 N.ar    1  UNL1       -0.2468
     20 C         141.1428  137.0597  163.9495 C.3     1  UNL1        0.1152
     21 C         142.3448  137.9540  161.8270 C.3     1  UNL1        0.0862
     22 N         141.5072  136.9089  162.5024 N.3     1  UNL1       -0.2913
     23 H         142.0114  136.0264  162.4161 H       1  UNL1        0.1236
@<TRIPOS>BOND
     1    21    22    1
     2    22    20    1
     3    20    14    1
     4    14    15   ar
     5    15    16   ar
     6    16     1    1
     7     1     2   ar
     8     2     3   ar
     9     3     4    1
    10     3     5   ar
    11     5     6   ar
    12     6     7    1
    13     7     8   ar
    14     8     9   ar
    15     9    10   ar
    16    10    11    1
    17    10    12   ar
    18    12    13   ar
    19    16    17   ar
    20    17    18   ar
    21    18    19   ar
    22    19    14   ar
    23     6     1   ar
    24    13     7   ar
    25    22    23    1
@<TRIPOS>MOLECULE
*****
 23 25 0 0 0
SMALL
GASTEIGER

@<TRIPOS>ATOM
      1 C         142.8097  141.4675  166.9095 C.ar    1  UNL1        0.0382
      2 C         142.7881  141.6440  168.3989 C.ar    1  UNL1        0.0966
      3 N         142.8274  140.2828  169.0277 N.ar    1  UNL1       -0.2474
      4 C         142.8218  139.9906  170.4990 C.3     1  UNL1        0.1538
      5 N         142.8734  139.2648  167.9268 N.ar    1  UNL1       -0.1692
      6 C         142.8624  139.9971  166.6178 C.ar    1  UNL1        0.1023
      7 C         142.8980  139.3691  165.2560 C.ar    1  UNL1        0.0195
      8 C         141.7661  138.4951  164.8033 C.ar    1  UNL1        0.0039
      9 C         141.8015  137.8671  163.4416 C.ar    1  UNL1        0.0297
     10 C         142.9690  138.1131  162.5324 C.ar    1  UNL1        0.1401
     11 F         143.0045  137.4852  161.1707 F       1  UNL1       -0.2042
     12 C         144.1009  138.9871  162.9851 C.ar    1  UNL1        0.0297
     13 C         144.0654  139.6151  164.3469 C.ar    1  UNL1        0.0039
     14 C         141.4478  144.1421  164.3131 C.ar    1  UNL1        0.0749
     15 C         141.4743  143.0415  165.3318 C.ar    1  UNL1        0.0162
     16 C         142.7833  142.5681  165.8907 C.ar    1  UNL1        0.0058
     17 C         144.0659  143.1953  165.4307 C.ar    1  UNL1        0.0208
     18 C         144.0394  144.2959  164.4119 C.ar    1  UNL1        0.0985
     19 N         142.7304  144.7693  163.8531 N.ar    1  UNL1       -0.2468
     20 C         140.1388  144.6155  163.7542 C.3     1  UNL1        0.1152
     21 C         140.0918  145.7894  161.4369 C.3     1  UNL1        0.0862
     22 N         140.0831  145.8706  162.9347 N.3     1  UNL1       -0.2913
     23 H         139.2259  146.3566  163.1983 H       1  UNL1        0.1236
@<TRIPOS>BOND
     1    21    22    1
     2    22    20    1
     3    20    14    1
     4    14    15   ar
     5    15    16   ar
     6    16     1    1
     7     1     2   ar
     8     2     3   ar
     9     3     4    1
    10     3     5   ar
    11     5     6   ar
    12     6     7    1
    13     7     8   ar
    14     8     9   ar
    15     9    10   ar
    16    10    11    1
    17    10    12   ar
    18    12    13   ar
    19    16    17   ar
    20    17    18   ar
    21    18    19   ar
    22    19    14   ar
    23     6     1   ar
    24    13     7   ar
    25    22    23    1
@<TRIPOS>MOLECULE
*****
 23 25 0 0 0
SMALL
GASTEIGER

@<TRIPOS>ATOM
      1 C         140.2996  141.4251  167.1170 C.ar    1  UNL1        0.0382
      2 C         140.4031  141.6110  168.6018 C.ar    1  UNL1        0.0966
      3 N         139.7182  140.4518  169.2630 N.ar    1  UNL1       -0.2474
      4 C         139.5837  140.2333  170.7409 C.3     1  UNL1        0.1538
      5 N         139.1913  139.5494  168.1867 N.ar    1  UNL1       -0.1692
      6 C         139.5506  140.1510  166.8605 C.ar    1  UNL1        0.1023
      7 C         139.2192  139.5788  165.5141 C.ar    1  UNL1        0.0195
      8 C         139.8676  138.3045  165.0604 C.ar    1  UNL1        0.0039
      9 C         139.5362  137.7323  163.7140 C.ar    1  UNL1        0.0297
     10 C         138.5564  138.4345  162.8212 C.ar    1  UNL1        0.1401
     11 F         138.2250  137.8624  161.4748 F       1  UNL1       -0.2042
     12 C         137.9080  139.7088  163.2749 C.ar    1  UNL1        0.0297
     13 C         138.2395  140.2809  164.6213 C.ar    1  UNL1        0.0039
     14 C         140.4765  144.1956  164.2810 C.ar    1  UNL1        0.0749
     15 C         139.9276  143.2699  165.3258 C.ar    1  UNL1        0.0162
     16 C         140.8486  142.3508  166.0721 C.ar    1  UNL1        0.0058
     17 C         142.3185  142.3572  165.7734 C.ar    1  UNL1        0.0208
     18 C         142.8674  143.2828  164.7285 C.ar    1  UNL1        0.0985
     19 N         141.9464  144.2020  163.9823 N.ar    1  UNL1       -0.2468
     20 C         139.5555  145.1148  163.5347 C.3     1  UNL1        0.1152
     21 C         140.1153  145.7821  161.0870 C.3     1  UNL1        0.0862
     22 N         140.1143  146.1013  162.5527 N.3     1  UNL1       -0.2913
     23 H         139.5813  146.9636  162.6659 H       1  UNL1        0.1236
@<TRIPOS>BOND
     1    21    22    1
     2    22    20    1
     3    20    14    1
     4    14    15   ar
     5    15    16   ar
     6    16     1    1
     7     1     2   ar
     8     2     3   ar
     9     3     4    1
    10     3     5   ar
    11     5     6   ar
    12     6     7    1
    13     7     8   ar
    14     8     9   ar
    15     9    10   ar
    16    10    11    1
    17    10    12   ar
    18    12    13   ar
    19    16    17   ar
    20    17    18   ar
    21    18    19   ar
    22    19    14   ar
    23     6     1   ar
    24    13     7   ar
    25    22    23    1
@<TRIPOS>MOLECULE
*****
 23 25 0 0 0
SMALL
GASTEIGER

@<TRIPOS>ATOM
      1 C         141.4911  140.0544  167.2636 C.ar    1  UNL1        0.0382
      2 C         141.6523  140.2325  168.7442 C.ar    1  UNL1        0.0966
      3 N         140.3185  139.9939  169.3877 N.ar    1  UNL1       -0.2474
      4 C         140.0223  140.0679  170.8564 C.3     1  UNL1        0.1538
      5 N         139.3329  139.6683  168.3048 N.ar    1  UNL1       -0.1692
      6 C         140.0576  139.7057  166.9920 C.ar    1  UNL1        0.1023
      7 C         139.4547  139.4409  165.6443 C.ar    1  UNL1        0.0195
      8 C         138.6981  140.5246  164.9351 C.ar    1  UNL1        0.0039
      9 C         138.0952  140.2599  163.5873 C.ar    1  UNL1        0.0297
     10 C         138.2489  138.9113  162.9488 C.ar    1  UNL1        0.1401
     11 F         137.6460  138.6464  161.6011 F       1  UNL1       -0.2042
     12 C         139.0055  137.8275  163.6580 C.ar    1  UNL1        0.0297
     13 C         139.6084  138.0923  165.0058 C.ar    1  UNL1        0.0039
     14 C         144.0460  141.7072  164.7159 C.ar    1  UNL1        0.0749
     15 C         142.9639  141.5621  165.7444 C.ar    1  UNL1        0.0162
     16 C         142.5733  140.1995  166.2350 C.ar    1  UNL1        0.0058
     17 C         143.2648  138.9820  165.6971 C.ar    1  UNL1        0.0208
     18 C         144.3470  139.1271  164.6686 C.ar    1  UNL1        0.0985
     19 N         144.7376  140.4897  164.1780 N.ar    1  UNL1       -0.2468
     20 C         144.4366  143.0699  164.2253 C.3     1  UNL1        0.1152
     21 C         143.3108  143.8421  162.0149 C.3     1  UNL1        0.0862
     22 N         144.5174  143.3420  162.7525 N.3     1  UNL1       -0.2913
     23 H         145.2519  144.0376  162.6215 H       1  UNL1        0.1236
@<TRIPOS>BOND
     1    21    22    1
     2    22    20    1
     3    20    14    1
     4    14    15   ar
     5    15    16   ar
     6    16     1    1
     7     1     2   ar
     8     2     3   ar
     9     3     4    1
    10     3     5   ar
    11     5     6   ar
    12     6     7    1
    13     7     8   ar
    14     8     9   ar
    15     9    10   ar
    16    10    11    1
    17    10    12   ar
    18    12    13   ar
    19    16    17   ar
    20    17    18   ar
    21    18    19   ar
    22    19    14   ar
    23     6     1   ar
    24    13     7   ar
    25    22    23    1
@<TRIPOS>MOLECULE
*****
 23 25 0 0 0
SMALL
GASTEIGER

@<TRIPOS>ATOM
      1 C         140.3750  142.3912  167.1750 C.ar    1  UNL1        0.0382
      2 C         140.6648  142.8749  168.5649 C.ar    1  UNL1        0.0966
      3 N         140.5717  141.7004  169.4933 N.ar    1  UNL1       -0.2474
      4 C         140.7880  141.7302  170.9773 C.3     1  UNL1        0.1538
      5 N         140.2244  140.4907  168.6770 N.ar    1  UNL1       -0.1692
      6 C         140.1028  140.9177  167.2443 C.ar    1  UNL1        0.1023
      7 C         139.7679  140.0275  166.0844 C.ar    1  UNL1        0.0195
      8 C         138.5309  140.2833  165.2753 C.ar    1  UNL1        0.0039
      9 C         138.1959  139.3931  164.1154 C.ar    1  UNL1        0.0297
     10 C         139.0979  138.2470  163.7646 C.ar    1  UNL1        0.1401
     11 F         138.7629  137.3568  162.6048 F       1  UNL1       -0.2042
     12 C         140.3348  137.9912  164.5737 C.ar    1  UNL1        0.0297
     13 C         140.6698  138.8815  165.7335 C.ar    1  UNL1        0.0039
     14 C         141.5448  144.1058  163.7924 C.ar    1  UNL1        0.0749
     15 C         141.5597  143.2639  165.0337 C.ar    1  UNL1        0.0162
     16 C         140.3600  143.2331  165.9336 C.ar    1  UNL1        0.0058
     17 C         139.1454  144.0442  165.5921 C.ar    1  UNL1        0.0208
     18 C         139.1304  144.8861  164.3507 C.ar    1  UNL1        0.0985
     19 N         140.3302  144.9169  163.4509 N.ar    1  UNL1       -0.2468
     20 C         142.7445  144.1366  162.8926 C.3     1  UNL1        0.1152
     21 C         142.0882  143.9361  160.3868 C.3     1  UNL1        0.0862
     22 N         142.6406  144.7427  161.5244 N.3     1  UNL1       -0.2913
     23 H         142.0502  145.5698  161.6129 H       1  UNL1        0.1236
@<TRIPOS>BOND
     1    21    22    1
     2    22    20    1
     3    20    14    1
     4    14    15   ar
     5    15    16   ar
     6    16     1    1
     7     1     2   ar
     8     2     3   ar
     9     3     4    1
    10     3     5   ar
    11     5     6   ar
    12     6     7    1
    13     7     8   ar
    14     8     9   ar
    15     9    10   ar
    16    10    11    1
    17    10    12   ar
    18    12    13   ar
    19    16    17   ar
    20    17    18   ar
    21    18    19   ar
    22    19    14   ar
    23     6     1   ar
    24    13     7   ar
    25    22    23    1
