@<TRIPOS>MOLECULE
*****
 31 34 0 0 0
SMALL
GASTEIGER

@<TRIPOS>ATOM
      1 O         139.6665  138.8011  165.6331 O.2     1  UNL1       -0.2522
      2 C         139.9562  139.7621  164.5183 C.2     1  UNL1        0.3076
      3 N         140.6750  141.0745  164.6218 N.am    1  UNL1       -0.2681
      4 N         139.4418  139.2913  163.1903 N.am    1  UNL1       -0.2671
      5 C         139.5707  140.0208  161.8860 C.3     1  UNL1        0.0785
      6 C         138.9167  139.1887  160.8229 C.3     1  UNL1        0.0216
      7 C         138.3837  137.9451  161.4702 C.3     1  UNL1        0.0216
      8 C         138.7082  138.0084  162.9334 C.3     1  UNL1        0.0785
      9 C         139.1618  138.3374  164.3352 C.3     1  UNL1        0.0439
     10 C         139.8806  139.6498  164.4386 C.3     1  UNL1        0.1388
     11 C         140.0851  140.4915  163.2140 C.3     1  UNL1        0.0439
     12 H         140.8092  141.6270  163.8180 H       1  UNL1        0.1564
     13 C         141.1894  141.5452  165.9498 C.ar    1  UNL1        0.0516
     14 C         140.3086  142.3614  166.8488 C.ar    1  UNL1        0.0147
     15 C         140.8229  142.8321  168.1769 C.ar    1  UNL1        0.0051
     16 C         142.2181  142.4867  168.6061 C.ar    1  UNL1        0.0715
     17 C         143.0989  141.6706  167.7072 C.ar    1  UNL1        0.0051
     18 C         142.5846  141.1999  166.3791 C.ar    1  UNL1        0.0147
     19 C         142.7324  142.9575  169.9342 C.3     1  UNL1        0.4186
     20 F         143.2467  143.4282  171.2623 F       1  UNL1       -0.1659
     21 F         143.9955  142.1768  169.7218 F       1  UNL1       -0.1659
     22 F         141.4692  143.7382  170.1466 F       1  UNL1       -0.1659
     23 S         140.3950  140.1206  165.7668 S.O2    1  UNL1        0.0234
     24 O         141.7461  139.4789  165.8808 O.2     1  UNL1       -0.1672
     25 O         139.2030  140.9508  166.1407 O.2     1  UNL1       -0.1672
     26 C         140.9095  140.5913  167.0948 C.ar    1  UNL1        0.1861
     27 C         142.2768  140.1831  167.5569 C.ar    1  UNL1        0.0379
     28 C         142.7913  140.6538  168.8850 C.ar    1  UNL1        0.0045
     29 C         141.9383  141.5327  169.7510 C.ar    1  UNL1        0.0208
     30 C         140.5708  141.9409  169.2889 C.ar    1  UNL1        0.1004
     31 N         140.0564  141.4702  167.9608 N.ar    1  UNL1       -0.2257
@<TRIPOS>BOND
     1     1     2    2
     2     2     3   am
     3     3    13    1
     4    13    14   ar
     5    14    15   ar
     6    15    16   ar
     7    16    19    1
     8    19    20    1
     9    19    21    1
    10    19    22    1
    11    16    17   ar
    12    17    18   ar
    13     2     4   am
    14     4     5    1
    15     5     6    1
    16     6     7    1
    17     8     7    1
    18     8     9    1
    19     9    10    1
    20    10    23    1
    21    23    24    2
    22    23    25    2
    23    23    26    1
    24    26    27   ar
    25    27    28   ar
    26    28    29   ar
    27    29    30   ar
    28    30    31   ar
    29    10    11    1
    30    18    13   ar
    31     8     4    1
    32    31    26   ar
    33    11     5    1
    34     3    12    1
@<TRIPOS>MOLECULE
*****
 31 34 0 0 0
SMALL
GASTEIGER

@<TRIPOS>ATOM
      1 O         139.3455  139.5033  167.1363 O.2     1  UNL1       -0.2522
      2 C         139.9110  140.8824  166.9680 C.2     1  UNL1        0.3076
      3 N         140.2991  141.5482  165.6811 N.am    1  UNL1       -0.2681
      4 N         140.0768  141.6105  168.2689 N.am    1  UNL1       -0.2671
      5 C         140.6142  143.0005  168.4390 C.3     1  UNL1        0.0785
      6 C         140.6039  143.3256  169.9033 C.3     1  UNL1        0.0216
      7 C         140.0600  142.1364  170.6382 C.3     1  UNL1        0.0216
      8 C         139.7342  141.0764  169.6281 C.3     1  UNL1        0.0785
      9 C         139.5064  140.2128  168.4110 C.3     1  UNL1        0.0439
     10 C         139.8945  140.8785  167.1241 C.3     1  UNL1        0.1388
     11 C         140.4484  142.2724  167.1381 C.3     1  UNL1        0.0439
     12 H         140.6626  142.4630  165.6902 H       1  UNL1        0.1564
     13 C         140.1332  140.8200  164.3803 C.ar    1  UNL1        0.0516
     14 C         138.8556  140.9505  163.6052 C.ar    1  UNL1        0.0147
     15 C         138.6897  140.2224  162.3043 C.ar    1  UNL1        0.0051
     16 C         139.8014  139.3636  161.7785 C.ar    1  UNL1        0.0715
     17 C         141.0791  139.2331  162.5534 C.ar    1  UNL1        0.0051
     18 C         141.2450  139.9612  163.8543 C.ar    1  UNL1        0.0147
     19 C         139.6355  138.6355  160.4776 C.3     1  UNL1        0.4186
     20 F         139.4696  137.9074  159.1767 F       1  UNL1       -0.1659
     21 F         138.2483  139.1904  160.3439 F       1  UNL1       -0.1659
     22 F         141.0228  138.0806  160.6113 F       1  UNL1       -0.1659
     23 S         139.7287  140.1503  165.8232 S.O2    1  UNL1        0.0234
     24 O         138.3131  140.4421  165.4219 O.2     1  UNL1       -0.1672
     25 O         141.1154  139.5830  165.7531 O.2     1  UNL1       -0.1672
     26 C         139.5628  139.4222  164.5223 C.ar    1  UNL1        0.1861
     27 C         140.6520  138.5194  164.0240 C.ar    1  UNL1        0.0379
     28 C         140.4861  137.7912  162.7231 C.ar    1  UNL1        0.0045
     29 C         139.2309  137.9660  161.9206 C.ar    1  UNL1        0.0208
     30 C         138.1417  138.8689  162.4190 C.ar    1  UNL1        0.1004
     31 N         138.3076  139.5970  163.7198 N.ar    1  UNL1       -0.2257
@<TRIPOS>BOND
     1     1     2    2
     2     2     3   am
     3     3    13    1
     4    13    14   ar
     5    14    15   ar
     6    15    16   ar
     7    16    19    1
     8    19    20    1
     9    19    21    1
    10    19    22    1
    11    16    17   ar
    12    17    18   ar
    13     2     4   am
    14     4     5    1
    15     5     6    1
    16     6     7    1
    17     8     7    1
    18     8     9    1
    19     9    10    1
    20    10    23    1
    21    23    24    2
    22    23    25    2
    23    23    26    1
    24    26    27   ar
    25    27    28   ar
    26    28    29   ar
    27    29    30   ar
    28    30    31   ar
    29    10    11    1
    30    18    13   ar
    31     8     4    1
    32    31    26   ar
    33    11     5    1
    34     3    12    1
@<TRIPOS>MOLECULE
*****
 31 34 0 0 0
SMALL
GASTEIGER

@<TRIPOS>ATOM
      1 O         143.3768  139.3942  164.9799 O.2     1  UNL1       -0.2522
      2 C         142.1977  139.5602  164.0677 C.2     1  UNL1        0.3076
      3 N         140.8814  140.1979  164.4007 N.am    1  UNL1       -0.2681
      4 N         142.4362  139.0052  162.6948 N.am    1  UNL1       -0.2671
      5 C         141.4582  139.0154  161.5575 C.3     1  UNL1        0.0785
      6 C         142.1120  138.3590  160.3778 C.3     1  UNL1        0.0216
      7 C         143.4942  137.9431  160.7860 C.3     1  UNL1        0.0216
      8 C         143.6946  138.3425  162.2180 C.3     1  UNL1        0.0785
      9 C         143.6137  138.8501  163.6374 C.3     1  UNL1        0.0439
     10 C         142.2974  139.4877  163.9704 C.3     1  UNL1        0.1388
     11 C         141.2197  139.5704  162.9305 C.3     1  UNL1        0.0439
     12 H         140.1740  140.2521  163.7181 H       1  UNL1        0.1564
     13 C         140.6430  140.7528  165.7737 C.ar    1  UNL1        0.0516
     14 C         140.9676  142.1871  166.0697 C.ar    1  UNL1        0.0147
     15 C         140.7292  142.7421  167.4427 C.ar    1  UNL1        0.0051
     16 C         140.1662  141.8630  168.5197 C.ar    1  UNL1        0.0715
     17 C         139.8415  140.4287  168.2237 C.ar    1  UNL1        0.0051
     18 C         140.0799  139.8736  166.8508 C.ar    1  UNL1        0.0147
     19 C         139.9278  142.4180  169.8926 C.3     1  UNL1        0.4186
     20 F         139.6894  142.9731  171.2656 F       1  UNL1       -0.1659
     21 F         140.4844  143.7403  169.4547 F       1  UNL1       -0.1659
     22 F         139.3711  141.0957  170.3305 F       1  UNL1       -0.1659
     23 S         142.0590  140.0428  165.3435 S.O2    1  UNL1        0.0234
     24 O         142.6037  141.4385  165.2704 O.2     1  UNL1       -0.1672
     25 O         141.4136  138.8201  165.9254 O.2     1  UNL1       -0.1672
     26 C         141.8205  140.5978  166.7165 C.ar    1  UNL1        0.1861
     27 C         142.2181  142.0087  167.0345 C.ar    1  UNL1        0.0379
     28 C         141.9797  142.5638  168.4074 C.ar    1  UNL1        0.0045
     29 C         141.3437  141.7079  169.4624 C.ar    1  UNL1        0.0208
     30 C         140.9461  140.2969  169.1443 C.ar    1  UNL1        0.1004
     31 N         141.1845  139.7418  167.7713 N.ar    1  UNL1       -0.2257
@<TRIPOS>BOND
     1     1     2    2
     2     2     3   am
     3     3    13    1
     4    13    14   ar
     5    14    15   ar
     6    15    16   ar
     7    16    19    1
     8    19    20    1
     9    19    21    1
    10    19    22    1
    11    16    17   ar
    12    17    18   ar
    13     2     4   am
    14     4     5    1
    15     5     6    1
    16     6     7    1
    17     8     7    1
    18     8     9    1
    19     9    10    1
    20    10    23    1
    21    23    24    2
    22    23    25    2
    23    23    26    1
    24    26    27   ar
    25    27    28   ar
    26    28    29   ar
    27    29    30   ar
    28    30    31   ar
    29    10    11    1
    30    18    13   ar
    31     8     4    1
    32    31    26   ar
    33    11     5    1
    34     3    12    1
