@<TRIPOS>MOLECULE
*****
 32 35 0 0 0
SMALL
GASTEIGER

@<TRIPOS>ATOM
      1 C         141.0100  141.8372  168.2755 C.3     1  UNL1        0.0841
      2 C         140.5587  143.0978  168.9516 C.3     1  UNL1        0.0095
      3 C         141.3805  143.6914  170.0573 C.3     1  UNL1        0.0005
      4 C         142.6535  143.0243  170.4867 C.3     1  UNL1        0.0005
      5 C         143.1048  141.7636  169.8106 C.3     1  UNL1        0.0082
      6 C         142.2830  141.1701  168.7050 C.3     1  UNL1        0.0705
      7 N         140.0910  141.9455  165.8478 N.am    1  UNL1       -0.2692
      8 C         140.1882  141.2436  167.1699 C.2     1  UNL1        0.2271
      9 O         139.4637  139.9481  167.3864 O.2     1  UNL1       -0.2747
     10 H         140.5666  142.7957  165.7057 H       1  UNL1        0.1563
     11 C         138.8814  139.4797  162.9830 C.ar    1  UNL1        0.2293
     12 C         139.7031  140.0733  164.0886 C.ar    1  UNL1        0.0921
     13 C         139.2692  141.3519  164.7422 C.ar    1  UNL1        0.1406
     14 N         138.0136  142.0368  164.2901 N.ar    1  UNL1       -0.2087
     15 C         137.1919  141.4431  163.1846 C.ar    1  UNL1        0.2027
     16 N         137.6258  140.1646  162.5310 N.ar    1  UNL1       -0.1892
     17 C         140.0749  138.2399  161.0367 C.3     1  UNL1        0.2542
     18 O         139.3152  138.2012  162.3295 O.3     1  UNL1       -0.4560
     19 C         142.7343  139.9094  168.0289 C.2     1  UNL1        0.1731
     20 O         142.9878  138.6730  168.8395 O.2     1  UNL1       -0.2913
     21 C         142.9319  139.8852  166.5422 C.ar    1  UNL1        0.0347
     22 C         143.4224  141.1112  165.8307 C.ar    1  UNL1        0.0029
     23 C         143.6201  141.0870  164.3440 C.ar    1  UNL1        0.0016
     24 C         143.3273  139.8367  163.5687 C.ar    1  UNL1        0.0171
     25 C         142.8368  138.6106  164.2802 C.ar    1  UNL1        0.0016
     26 C         142.6391  138.6349  165.7669 C.ar    1  UNL1        0.0029
     27 C         143.5250  139.8124  162.0820 C.ar    1  UNL1        0.0754
     28 C         142.9621  140.7982  161.1015 C.ar    1  UNL1        0.0409
     29 C         143.4095  140.3932  159.7283 C.ar    1  UNL1        0.1214
     30 N         144.2489  139.1570  159.8601 N.ar    1  UNL1       -0.1711
     31 N         144.3203  138.7981  161.3148 N.ar    1  UNL1       -0.2757
     32 H         144.8042  138.0314  161.6986 H       1  UNL1        0.1889
@<TRIPOS>BOND
     1    17    18    1
     2    18    11    1
     3    11    12   ar
     4    12    13   ar
     5    13     7    1
     6     7     8   am
     7     8     9    2
     8     1     8    1
     9     1     2    1
    10     2     3    1
    11     3     4    1
    12     4     5    1
    13     5     6    1
    14     6    19    1
    15    19    20    2
    16    19    21    1
    17    21    22   ar
    18    22    23   ar
    19    23    24   ar
    20    24    27    1
    21    27    28   ar
    22    28    29   ar
    23    29    30   ar
    24    30    31   ar
    25    24    25   ar
    26    25    26   ar
    27    13    14   ar
    28    14    15   ar
    29    15    16   ar
    30    16    11   ar
    31     6     1    1
    32    26    21   ar
    33    31    27   ar
    34     7    10    1
    35    31    32    1
@<TRIPOS>MOLECULE
*****
 32 35 0 0 0
SMALL
GASTEIGER

@<TRIPOS>ATOM
      1 C         141.7306  140.2551  168.1098 C.3     1  UNL1        0.0841
      2 C         142.4987  140.4274  169.3867 C.3     1  UNL1        0.0095
      3 C         141.7672  140.5695  170.6886 C.3     1  UNL1        0.0005
      4 C         140.2678  140.5394  170.7135 C.3     1  UNL1        0.0005
      5 C         139.4997  140.3671  169.4367 C.3     1  UNL1        0.0082
      6 C         140.2311  140.2250  168.1348 C.3     1  UNL1        0.0705
      7 N         142.9007  141.3351  166.0569 N.am    1  UNL1       -0.2692
      8 C         142.4620  140.1130  166.8080 C.2     1  UNL1        0.2271
      9 O         142.7547  138.7488  166.2571 O.2     1  UNL1       -0.2747
     10 H         142.7086  142.2304  166.4184 H       1  UNL1        0.1563
     11 C         143.7980  140.1859  162.3658 C.ar    1  UNL1        0.2293
     12 C         143.0667  140.3281  163.6676 C.ar    1  UNL1        0.0921
     13 C         143.6321  141.1929  164.7550 C.ar    1  UNL1        0.1406
     14 N         144.9290  141.9155  164.5405 N.ar    1  UNL1       -0.2087
     15 C         145.6603  141.7733  163.2386 C.ar    1  UNL1        0.2027
     16 N         145.0948  140.9085  162.1513 N.ar    1  UNL1       -0.1892
     17 C         143.7069  137.9068  161.1219 C.3     1  UNL1        0.2542
     18 O         143.2325  139.3211  161.2784 O.3     1  UNL1       -0.4560
     19 C         139.4630  140.0527  166.8580 C.2     1  UNL1        0.1731
     20 O         138.6140  138.8332  166.6521 O.2     1  UNL1       -0.2913
     21 C         139.5439  141.0998  165.7870 C.ar    1  UNL1        0.0347
     22 C         139.6983  142.5442  166.1606 C.ar    1  UNL1        0.0029
     23 C         139.7792  143.5914  165.0895 C.ar    1  UNL1        0.0016
     24 C         139.7056  143.1940  163.6450 C.ar    1  UNL1        0.0171
     25 C         139.5511  141.7494  163.2715 C.ar    1  UNL1        0.0016
     26 C         139.4702  140.7024  164.3425 C.ar    1  UNL1        0.0029
     27 C         139.7864  144.2411  162.5740 C.ar    1  UNL1        0.0754
     28 C         140.8400  144.3349  161.5105 C.ar    1  UNL1        0.0409
     29 C         140.5326  145.5300  160.6577 C.ar    1  UNL1        0.1214
     30 N         139.2890  146.1748  161.1942 N.ar    1  UNL1       -0.1711
     31 N         138.8279  145.3782  162.3786 N.ar    1  UNL1       -0.2757
     32 H         138.0353  145.5683  162.9307 H       1  UNL1        0.1889
@<TRIPOS>BOND
     1    17    18    1
     2    18    11    1
     3    11    12   ar
     4    12    13   ar
     5    13     7    1
     6     7     8   am
     7     8     9    2
     8     1     8    1
     9     1     2    1
    10     2     3    1
    11     3     4    1
    12     4     5    1
    13     5     6    1
    14     6    19    1
    15    19    20    2
    16    19    21    1
    17    21    22   ar
    18    22    23   ar
    19    23    24   ar
    20    24    27    1
    21    27    28   ar
    22    28    29   ar
    23    29    30   ar
    24    30    31   ar
    25    24    25   ar
    26    25    26   ar
    27    13    14   ar
    28    14    15   ar
    29    15    16   ar
    30    16    11   ar
    31     6     1    1
    32    26    21   ar
    33    31    27   ar
    34     7    10    1
    35    31    32    1
@<TRIPOS>MOLECULE
*****
 32 35 0 0 0
SMALL
GASTEIGER

@<TRIPOS>ATOM
      1 C         141.5463  139.4516  167.0953 C.3     1  UNL1        0.0841
      2 C         142.6093  139.2967  168.1423 C.3     1  UNL1        0.0095
      3 C         142.2900  139.5729  169.5817 C.3     1  UNL1        0.0005
      4 C         140.9079  140.0039  169.9741 C.3     1  UNL1        0.0005
      5 C         139.8450  140.1587  168.9271 C.3     1  UNL1        0.0082
      6 C         140.1642  139.8825  167.4877 C.3     1  UNL1        0.0705
      7 N         142.6613  140.1674  164.8605 N.am    1  UNL1       -0.2692
      8 C         141.8655  139.1754  165.6559 C.2     1  UNL1        0.2271
      9 O         141.3889  137.9072  165.0119 O.2     1  UNL1       -0.2747
     10 H         142.9741  140.9997  165.2831 H       1  UNL1        0.1563
     11 C         142.9535  140.6264  160.9293 C.ar    1  UNL1        0.2293
     12 C         142.6343  140.9026  162.3687 C.ar    1  UNL1        0.0921
     13 C         142.9804  139.8912  163.4210 C.ar    1  UNL1        0.1406
     14 N         143.6456  138.6037  163.0340 N.ar    1  UNL1       -0.2087
     15 C         143.9648  138.3276  161.5946 C.ar    1  UNL1        0.2027
     16 N         143.6187  139.3389  160.5423 N.ar    1  UNL1       -0.1892
     17 C         143.6249  142.6535  159.4495 C.3     1  UNL1        0.2542
     18 O         142.6074  141.6378  159.8770 O.3     1  UNL1       -0.4560
     19 C         139.1012  140.0374  166.4408 C.2     1  UNL1        0.1731
     20 O         137.9068  139.1299  166.4447 O.2     1  UNL1       -0.2913
     21 C         139.2327  141.0996  165.3899 C.ar    1  UNL1        0.0347
     22 C         138.8608  140.7982  163.9683 C.ar    1  UNL1        0.0029
     23 C         138.9922  141.8604  162.9173 C.ar    1  UNL1        0.0016
     24 C         139.4955  143.2240  163.2880 C.ar    1  UNL1        0.0171
     25 C         139.8674  143.5253  164.7097 C.ar    1  UNL1        0.0016
     26 C         139.7360  142.4631  165.7605 C.ar    1  UNL1        0.0029
     27 C         139.6270  144.2862  162.2371 C.ar    1  UNL1        0.0754
     28 C         140.5226  144.2312  161.0351 C.ar    1  UNL1        0.0409
     29 C         140.3350  145.5009  160.2588 C.ar    1  UNL1        0.1214
     30 N         139.3235  146.3406  160.9811 N.ar    1  UNL1       -0.1711
     31 N         138.8859  145.5899  162.2038 N.ar    1  UNL1       -0.2757
     32 H         138.2278  145.8986  162.8677 H       1  UNL1        0.1889
@<TRIPOS>BOND
     1    17    18    1
     2    18    11    1
     3    11    12   ar
     4    12    13   ar
     5    13     7    1
     6     7     8   am
     7     8     9    2
     8     1     8    1
     9     1     2    1
    10     2     3    1
    11     3     4    1
    12     4     5    1
    13     5     6    1
    14     6    19    1
    15    19    20    2
    16    19    21    1
    17    21    22   ar
    18    22    23   ar
    19    23    24   ar
    20    24    27    1
    21    27    28   ar
    22    28    29   ar
    23    29    30   ar
    24    30    31   ar
    25    24    25   ar
    26    25    26   ar
    27    13    14   ar
    28    14    15   ar
    29    15    16   ar
    30    16    11   ar
    31     6     1    1
    32    26    21   ar
    33    31    27   ar
    34     7    10    1
    35    31    32    1
@<TRIPOS>MOLECULE
*****
 32 35 0 0 0
SMALL
GASTEIGER

@<TRIPOS>ATOM
      1 C         140.8475  142.1507  168.2854 C.3     1  UNL1        0.0841
      2 C         141.4987  143.0834  169.2631 C.3     1  UNL1        0.0095
      3 C         141.7004  142.6563  170.6869 C.3     1  UNL1        0.0005
      4 C         141.2509  141.2966  171.1328 C.3     1  UNL1        0.0005
      5 C         140.5996  140.3639  170.1551 C.3     1  UNL1        0.0082
      6 C         140.3979  140.7909  168.7315 C.3     1  UNL1        0.0705
      7 N         139.2986  143.0540  166.4052 N.am    1  UNL1       -0.2692
      8 C         140.6458  142.5777  166.8617 C.2     1  UNL1        0.2271
      9 O         141.7912  142.5285  165.8944 O.2     1  UNL1       -0.2747
     10 H         138.5468  143.0863  167.0401 H       1  UNL1        0.1563
     11 C         138.1755  143.0064  162.5992 C.ar    1  UNL1        0.2293
     12 C         138.3771  142.5794  164.0229 C.ar    1  UNL1        0.0921
     13 C         139.0970  143.4810  164.9815 C.ar    1  UNL1        0.1406
     14 N         139.6151  144.8096  164.5164 N.ar    1  UNL1       -0.2087
     15 C         139.4134  145.2366  163.0927 C.ar    1  UNL1        0.2027
     16 N         138.6936  144.3350  162.1341 N.ar    1  UNL1       -0.1892
     17 C         137.8041  140.6473  161.5762 C.3     1  UNL1        0.2542
     18 O         137.4556  142.1048  161.6405 O.3     1  UNL1       -0.4560
     19 C         139.7467  139.8582  167.7538 C.2     1  UNL1        0.1731
     20 O         138.3906  139.2891  168.0493 O.2     1  UNL1       -0.2913
     21 C         140.4515  139.4945  166.4806 C.ar    1  UNL1        0.0347
     22 C         141.9165  139.1731  166.4998 C.ar    1  UNL1        0.0029
     23 C         142.6213  138.8094  165.2266 C.ar    1  UNL1        0.0016
     24 C         141.8611  138.7671  163.9342 C.ar    1  UNL1        0.0171
     25 C         140.3960  139.0885  163.9151 C.ar    1  UNL1        0.0016
     26 C         139.6912  139.4522  165.1882 C.ar    1  UNL1        0.0029
     27 C         142.5659  138.4034  162.6611 C.ar    1  UNL1        0.0754
     28 C         143.8962  138.9283  162.2088 C.ar    1  UNL1        0.0409
     29 C         144.2166  138.3003  160.8848 C.ar    1  UNL1        0.1214
     30 N         143.0842  137.3871  160.5189 N.ar    1  UNL1       -0.1711
     31 N         142.0640  137.4509  161.6167 N.ar    1  UNL1       -0.2757
     32 H         141.2142  136.9547  161.6464 H       1  UNL1        0.1889
@<TRIPOS>BOND
     1    17    18    1
     2    18    11    1
     3    11    12   ar
     4    12    13   ar
     5    13     7    1
     6     7     8   am
     7     8     9    2
     8     1     8    1
     9     1     2    1
    10     2     3    1
    11     3     4    1
    12     4     5    1
    13     5     6    1
    14     6    19    1
    15    19    20    2
    16    19    21    1
    17    21    22   ar
    18    22    23   ar
    19    23    24   ar
    20    24    27    1
    21    27    28   ar
    22    28    29   ar
    23    29    30   ar
    24    30    31   ar
    25    24    25   ar
    26    25    26   ar
    27    13    14   ar
    28    14    15   ar
    29    15    16   ar
    30    16    11   ar
    31     6     1    1
    32    26    21   ar
    33    31    27   ar
    34     7    10    1
    35    31    32    1
@<TRIPOS>MOLECULE
*****
 32 35 0 0 0
SMALL
GASTEIGER

@<TRIPOS>ATOM
      1 C         139.9513  139.5999  165.3439 C.3     1  UNL1        0.0841
      2 C         139.4267  139.9499  166.7049 C.3     1  UNL1        0.0095
      3 C         138.3950  139.0784  167.3579 C.3     1  UNL1        0.0005
      4 C         137.8881  137.8571  166.6500 C.3     1  UNL1        0.0005
      5 C         138.4127  137.5072  165.2890 C.3     1  UNL1        0.0082
      6 C         139.4443  138.3785  164.6360 C.3     1  UNL1        0.0705
      7 N         140.6074  141.8371  164.1975 N.am    1  UNL1       -0.2692
      8 C         140.9829  140.4713  164.6909 C.2     1  UNL1        0.2271
      9 O         142.3901  139.9768  164.5314 O.2     1  UNL1       -0.2747
     10 H         139.6839  142.1617  164.3022 H       1  UNL1        0.1563
     11 C         142.5693  143.8945  161.4283 C.ar    1  UNL1        0.2293
     12 C         141.5377  143.0232  162.0813 C.ar    1  UNL1        0.0921
     13 C         141.6391  142.7085  163.5444 C.ar    1  UNL1        0.1406
     14 N         142.7722  143.2651  164.3545 N.ar    1  UNL1       -0.2087
     15 C         143.8038  144.1365  163.7015 C.ar    1  UNL1        0.2027
     16 N         143.7024  144.4511  162.2383 N.ar    1  UNL1       -0.1892
     17 C         141.3050  145.0028  159.4476 C.3     1  UNL1        0.2542
     18 O         142.4678  144.2092  159.9652 O.3     1  UNL1       -0.4560
     19 C         139.9689  138.0286  163.2750 C.2     1  UNL1        0.1731
     20 O         140.9966  136.9466  163.1227 O.2     1  UNL1       -0.2913
     21 C         139.4658  138.7605  162.0662 C.ar    1  UNL1        0.0347
     22 C         137.9942  138.9881  161.8859 C.ar    1  UNL1        0.0029
     23 C         137.4911  139.7201  160.6771 C.ar    1  UNL1        0.0016
     24 C         138.4596  140.2245  159.6487 C.ar    1  UNL1        0.0171
     25 C         139.9313  139.9969  159.8291 C.ar    1  UNL1        0.0016
     26 C         140.4344  139.2650  161.0379 C.ar    1  UNL1        0.0029
     27 C         137.9565  140.9565  158.4400 C.ar    1  UNL1        0.0754
     28 C         138.1781  142.4079  158.1325 C.ar    1  UNL1        0.0409
     29 C         137.5021  142.7140  156.8290 C.ar    1  UNL1        0.1214
     30 N         136.8627  141.4518  156.3308 N.ar    1  UNL1       -0.1711
     31 N         137.1436  140.3657  157.3265 N.ar    1  UNL1       -0.2757
     32 H         136.8465  139.4294  157.2606 H       1  UNL1        0.1889
@<TRIPOS>BOND
     1    17    18    1
     2    18    11    1
     3    11    12   ar
     4    12    13   ar
     5    13     7    1
     6     7     8   am
     7     8     9    2
     8     1     8    1
     9     1     2    1
    10     2     3    1
    11     3     4    1
    12     4     5    1
    13     5     6    1
    14     6    19    1
    15    19    20    2
    16    19    21    1
    17    21    22   ar
    18    22    23   ar
    19    23    24   ar
    20    24    27    1
    21    27    28   ar
    22    28    29   ar
    23    29    30   ar
    24    30    31   ar
    25    24    25   ar
    26    25    26   ar
    27    13    14   ar
    28    14    15   ar
    29    15    16   ar
    30    16    11   ar
    31     6     1    1
    32    26    21   ar
    33    31    27   ar
    34     7    10    1
    35    31    32    1
@<TRIPOS>MOLECULE
*****
 32 35 0 0 0
SMALL
GASTEIGER

@<TRIPOS>ATOM
      1 C         139.9208  140.4145  167.7117 C.3     1  UNL1        0.0841
      2 C         138.8397  139.7369  168.5003 C.3     1  UNL1        0.0095
      3 C         138.5314  140.1927  169.8958 C.3     1  UNL1        0.0005
      4 C         139.3043  141.3260  170.5026 C.3     1  UNL1        0.0005
      5 C         140.3855  142.0035  169.7140 C.3     1  UNL1        0.0082
      6 C         140.6938  141.5479  168.3186 C.3     1  UNL1        0.0705
      7 N         141.5003  139.2143  166.0340 N.am    1  UNL1       -0.2692
      8 C         140.2291  139.9588  166.3163 C.2     1  UNL1        0.2271
      9 O         139.2662  140.2477  165.2030 O.2     1  UNL1       -0.2747
     10 H         142.1323  139.0246  166.7647 H       1  UNL1        0.1563
     11 C         143.2135  138.9653  162.4629 C.ar    1  UNL1        0.2293
     12 C         142.9052  139.4209  163.8583 C.ar    1  UNL1        0.0921
     13 C         141.8086  138.7586  164.6385 C.ar    1  UNL1        0.1406
     14 N         141.0202  137.6406  164.0233 N.ar    1  UNL1       -0.2087
     15 C         141.3285  137.1850  162.6278 C.ar    1  UNL1        0.2027
     16 N         142.4251  137.8473  161.8476 N.ar    1  UNL1       -0.1892
     17 C         144.3440  141.1219  161.5570 C.3     1  UNL1        0.2542
     18 O         144.3101  139.6276  161.6827 O.3     1  UNL1       -0.4560
     19 C         141.7749  142.2254  167.5299 C.2     1  UNL1        0.1731
     20 O         143.1892  142.2110  168.0299 O.2     1  UNL1       -0.2913
     21 C         141.4420  142.9174  166.2414 C.ar    1  UNL1        0.0347
     22 C         140.1088  143.5831  166.0705 C.ar    1  UNL1        0.0029
     23 C         139.7757  144.2751  164.7819 C.ar    1  UNL1        0.0016
     24 C         140.7760  144.3014  163.6644 C.ar    1  UNL1        0.0171
     25 C         142.1093  143.6356  163.8354 C.ar    1  UNL1        0.0016
     26 C         142.4422  142.9436  165.1239 C.ar    1  UNL1        0.0029
     27 C         140.4430  144.9933  162.3759 C.ar    1  UNL1        0.0754
     28 C         140.8916  144.5728  161.0077 C.ar    1  UNL1        0.0409
     29 C         140.3288  145.5469  160.0155 C.ar    1  UNL1        0.1214
     30 N         139.5324  146.5695  160.7706 N.ar    1  UNL1       -0.1711
     31 N         139.6030  146.2273  162.2293 N.ar    1  UNL1       -0.2757
     32 H         139.1734  146.7253  162.9619 H       1  UNL1        0.1889
@<TRIPOS>BOND
     1    17    18    1
     2    18    11    1
     3    11    12   ar
     4    12    13   ar
     5    13     7    1
     6     7     8   am
     7     8     9    2
     8     1     8    1
     9     1     2    1
    10     2     3    1
    11     3     4    1
    12     4     5    1
    13     5     6    1
    14     6    19    1
    15    19    20    2
    16    19    21    1
    17    21    22   ar
    18    22    23   ar
    19    23    24   ar
    20    24    27    1
    21    27    28   ar
    22    28    29   ar
    23    29    30   ar
    24    30    31   ar
    25    24    25   ar
    26    25    26   ar
    27    13    14   ar
    28    14    15   ar
    29    15    16   ar
    30    16    11   ar
    31     6     1    1
    32    26    21   ar
    33    31    27   ar
    34     7    10    1
    35    31    32    1
@<TRIPOS>MOLECULE
*****
 32 35 0 0 0
SMALL
GASTEIGER

@<TRIPOS>ATOM
      1 C         139.5642  140.0852  161.9953 C.3     1  UNL1        0.0841
      2 C         138.4860  140.4736  161.0275 C.3     1  UNL1        0.0095
      3 C         137.3582  139.5268  160.7416 C.3     1  UNL1        0.0005
      4 C         137.3086  138.1918  161.4235 C.3     1  UNL1        0.0005
      5 C         138.3868  137.8034  162.3913 C.3     1  UNL1        0.0082
      6 C         139.5146  138.7501  162.6772 C.3     1  UNL1        0.0705
      7 N         140.5422  142.0769  163.3468 N.am    1  UNL1       -0.2692
      8 C         140.6920  141.0319  162.2812 C.2     1  UNL1        0.2271
      9 O         141.9697  140.9336  161.5015 O.2     1  UNL1       -0.2747
     10 H         139.7037  142.1414  163.8586 H       1  UNL1        0.1563
     11 C         144.1676  143.4366  164.2172 C.ar    1  UNL1        0.2293
     12 C         143.0398  142.4900  163.9314 C.ar    1  UNL1        0.0921
     13 C         141.6701  143.0236  163.6327 C.ar    1  UNL1        0.1406
     14 N         141.4283  144.5039  163.6199 N.ar    1  UNL1       -0.2087
     15 C         142.5562  145.4506  163.9058 C.ar    1  UNL1        0.2027
     16 N         143.9258  144.9169  164.2045 N.ar    1  UNL1       -0.1892
     17 C         145.9994  141.6252  163.8805 C.3     1  UNL1        0.2542
     18 O         145.5373  142.9029  164.5159 O.3     1  UNL1       -0.4560
     19 C         140.5927  138.3617  163.6450 C.2     1  UNL1        0.1731
     20 O         141.6884  137.4323  163.2138 O.2     1  UNL1       -0.2913
     21 C         140.5753  138.9026  165.0439 C.ar    1  UNL1        0.0347
     22 C         139.2679  139.1889  165.7211 C.ar    1  UNL1        0.0029
     23 C         139.2504  139.7299  167.1201 C.ar    1  UNL1        0.0016
     24 C         140.5404  139.9845  167.8419 C.ar    1  UNL1        0.0171
     25 C         141.8479  139.6982  167.1647 C.ar    1  UNL1        0.0016
     26 C         141.8654  139.1572  165.7657 C.ar    1  UNL1        0.0029
     27 C         140.5230  140.5255  169.2408 C.ar    1  UNL1        0.0754
     28 C         140.4660  141.9743  169.6252 C.ar    1  UNL1        0.0409
     29 C         140.4673  142.0569  171.1229 C.ar    1  UNL1        0.1214
     30 N         140.5251  140.6590  171.6641 N.ar    1  UNL1       -0.1711
     31 N         140.5596  139.7126  170.5009 N.ar    1  UNL1       -0.2757
     32 H         140.5992  138.7304  170.5550 H       1  UNL1        0.1889
@<TRIPOS>BOND
     1    17    18    1
     2    18    11    1
     3    11    12   ar
     4    12    13   ar
     5    13     7    1
     6     7     8   am
     7     8     9    2
     8     1     8    1
     9     1     2    1
    10     2     3    1
    11     3     4    1
    12     4     5    1
    13     5     6    1
    14     6    19    1
    15    19    20    2
    16    19    21    1
    17    21    22   ar
    18    22    23   ar
    19    23    24   ar
    20    24    27    1
    21    27    28   ar
    22    28    29   ar
    23    29    30   ar
    24    30    31   ar
    25    24    25   ar
    26    25    26   ar
    27    13    14   ar
    28    14    15   ar
    29    15    16   ar
    30    16    11   ar
    31     6     1    1
    32    26    21   ar
    33    31    27   ar
    34     7    10    1
    35    31    32    1
@<TRIPOS>MOLECULE
*****
 32 35 0 0 0
SMALL
GASTEIGER

@<TRIPOS>ATOM
      1 C         142.8551  140.8734  165.0150 C.3     1  UNL1        0.0841
      2 C         142.2178  140.4859  166.3164 C.3     1  UNL1        0.0095
      3 C         142.6714  139.2498  167.0350 C.3     1  UNL1        0.0005
      4 C         143.7624  138.4012  166.4522 C.3     1  UNL1        0.0005
      5 C         144.3998  138.7887  165.1508 C.3     1  UNL1        0.0082
      6 C         143.9462  140.0247  164.4322 C.3     1  UNL1        0.0705
      7 N         141.2907  142.0278  163.2917 N.am    1  UNL1       -0.2692
      8 C         142.4015  142.1094  164.2964 C.2     1  UNL1        0.2271
      9 O         143.0588  143.4271  164.5824 O.2     1  UNL1       -0.2747
     10 H         140.8592  141.1630  163.1040 H       1  UNL1        0.1563
     11 C         141.1077  144.9606  160.6243 C.ar    1  UNL1        0.2293
     12 C         141.5612  143.7246  161.3429 C.ar    1  UNL1        0.0921
     13 C         140.8371  143.2639  162.5731 C.ar    1  UNL1        0.1406
     14 N         139.6594  144.0393  163.0847 N.ar    1  UNL1       -0.2087
     15 C         139.2058  145.2754  162.3661 C.ar    1  UNL1        0.2027
     16 N         139.9300  145.7360  161.1359 N.ar    1  UNL1       -0.1892
     17 C         141.1592  145.3460  158.0555 C.3     1  UNL1        0.2542
     18 O         141.8318  145.4213  159.3941 O.3     1  UNL1       -0.4560
     19 C         144.5836  140.4122  163.1308 C.2     1  UNL1        0.1731
     20 O         145.7376  141.3704  163.1169 O.2     1  UNL1       -0.2913
     21 C         144.0670  139.8416  161.8434 C.ar    1  UNL1        0.0347
     22 C         143.6795  138.3945  161.7665 C.ar    1  UNL1        0.0029
     23 C         143.1629  137.8238  160.4791 C.ar    1  UNL1        0.0016
     24 C         143.0337  138.7002  159.2686 C.ar    1  UNL1        0.0171
     25 C         143.4212  140.1473  159.3455 C.ar    1  UNL1        0.0016
     26 C         143.9378  140.7179  160.6329 C.ar    1  UNL1        0.0029
     27 C         142.5171  138.1295  157.9812 C.ar    1  UNL1        0.0754
     28 C         141.0741  137.9669  157.6050 C.ar    1  UNL1        0.0409
     29 C         141.0179  137.3582  156.2353 C.ar    1  UNL1        0.1214
     30 N         142.4262  137.1446  155.7649 N.ar    1  UNL1       -0.1711
     31 N         143.3527  137.6213  156.8439 N.ar    1  UNL1       -0.2757
     32 H         144.3365  137.6037  156.8114 H       1  UNL1        0.1889
@<TRIPOS>BOND
     1    17    18    1
     2    18    11    1
     3    11    12   ar
     4    12    13   ar
     5    13     7    1
     6     7     8   am
     7     8     9    2
     8     1     8    1
     9     1     2    1
    10     2     3    1
    11     3     4    1
    12     4     5    1
    13     5     6    1
    14     6    19    1
    15    19    20    2
    16    19    21    1
    17    21    22   ar
    18    22    23   ar
    19    23    24   ar
    20    24    27    1
    21    27    28   ar
    22    28    29   ar
    23    29    30   ar
    24    30    31   ar
    25    24    25   ar
    26    25    26   ar
    27    13    14   ar
    28    14    15   ar
    29    15    16   ar
    30    16    11   ar
    31     6     1    1
    32    26    21   ar
    33    31    27   ar
    34     7    10    1
    35    31    32    1
@<TRIPOS>MOLECULE
*****
 32 35 0 0 0
SMALL
GASTEIGER

@<TRIPOS>ATOM
      1 C         140.2605  141.2268  161.0968 C.3     1  UNL1        0.0841
      2 C         139.8671  142.2777  160.1013 C.3     1  UNL1        0.0095
      3 C         138.7974  141.9896  159.0899 C.3     1  UNL1        0.0005
      4 C         138.1212  140.6508  159.0740 C.3     1  UNL1        0.0005
      5 C         138.5146  139.6000  160.0695 C.3     1  UNL1        0.0082
      6 C         139.5842  139.8880  161.0809 C.3     1  UNL1        0.0705
      7 N         141.0408  142.4199  163.2688 N.am    1  UNL1       -0.2692
      8 C         141.3301  141.5148  162.1081 C.2     1  UNL1        0.2271
      9 O         142.6892  140.8977  161.9589 O.2     1  UNL1       -0.2747
     10 H         140.1489  142.8249  163.3668 H       1  UNL1        0.1563
     11 C         143.1312  142.3435  166.6414 C.ar    1  UNL1        0.2293
     12 C         142.0615  142.0556  165.6301 C.ar    1  UNL1        0.0921
     13 C         142.1106  142.7079  164.2802 C.ar    1  UNL1        0.1406
     14 N         143.2292  143.6480  163.9417 N.ar    1  UNL1       -0.2087
     15 C         144.2989  143.9359  164.9530 C.ar    1  UNL1        0.2027
     16 N         144.2498  143.2837  166.3029 N.ar    1  UNL1       -0.1892
     17 C         143.5904  142.4242  169.1973 C.3     1  UNL1        0.2542
     18 O         143.0822  141.6912  167.9913 O.3     1  UNL1       -0.4560
     19 C         139.9776  138.8372  162.0764 C.2     1  UNL1        0.1731
     20 O         140.5696  137.5419  161.6052 O.2     1  UNL1       -0.2913
     21 C         139.7791  139.0816  163.5429 C.ar    1  UNL1        0.0347
     22 C         140.8593  138.7157  164.5172 C.ar    1  UNL1        0.0029
     23 C         140.6608  138.9601  165.9838 C.ar    1  UNL1        0.0016
     24 C         139.3821  139.5704  166.4761 C.ar    1  UNL1        0.0171
     25 C         138.3018  139.9363  165.5017 C.ar    1  UNL1        0.0016
     26 C         138.5004  139.6919  164.0352 C.ar    1  UNL1        0.0029
     27 C         139.1835  139.8148  167.9426 C.ar    1  UNL1        0.0754
     28 C         140.1057  140.5848  168.8409 C.ar    1  UNL1        0.0409
     29 C         139.5201  140.5780  170.2219 C.ar    1  UNL1        0.1214
     30 N         138.2360  139.8039  170.1770 N.ar    1  UNL1       -0.1711
     31 N         138.0280  139.3322  168.7684 N.ar    1  UNL1       -0.2757
     32 H         137.2668  138.7995  168.4430 H       1  UNL1        0.1889
@<TRIPOS>BOND
     1    17    18    1
     2    18    11    1
     3    11    12   ar
     4    12    13   ar
     5    13     7    1
     6     7     8   am
     7     8     9    2
     8     1     8    1
     9     1     2    1
    10     2     3    1
    11     3     4    1
    12     4     5    1
    13     5     6    1
    14     6    19    1
    15    19    20    2
    16    19    21    1
    17    21    22   ar
    18    22    23   ar
    19    23    24   ar
    20    24    27    1
    21    27    28   ar
    22    28    29   ar
    23    29    30   ar
    24    30    31   ar
    25    24    25   ar
    26    25    26   ar
    27    13    14   ar
    28    14    15   ar
    29    15    16   ar
    30    16    11   ar
    31     6     1    1
    32    26    21   ar
    33    31    27   ar
    34     7    10    1
    35    31    32    1
