@<TRIPOS>MOLECULE
*****
 34 38 0 0 0
SMALL
GASTEIGER

@<TRIPOS>ATOM
      1 C         142.0587  140.8325  167.2477 C.3     1  UNL1        0.1073
      2 C         142.1286  141.8163  168.3778 C.ar    1  UNL1       -0.0108
      3 C         143.3878  141.9464  169.1822 C.ar    1  UNL1       -0.0035
      4 C         143.4576  142.9302  170.3124 C.ar    1  UNL1       -0.0003
      5 C         142.2682  143.7840  170.6380 C.ar    1  UNL1       -0.0000
      6 C         141.0089  143.6540  169.8336 C.ar    1  UNL1       -0.0003
      7 C         140.9390  142.6701  168.7035 C.ar    1  UNL1       -0.0035
      8 C         142.2572  141.9478  166.2645 C.ar    1  UNL1       -0.0108
      9 C         141.0887  142.4820  165.4904 C.ar    1  UNL1       -0.0035
     10 C         141.2872  143.5973  164.5072 C.ar    1  UNL1       -0.0003
     11 C         142.6542  144.1783  164.2981 C.ar    1  UNL1       -0.0000
     12 C         143.8227  143.6441  165.0722 C.ar    1  UNL1       -0.0003
     13 C         143.6242  142.5289  166.0554 C.ar    1  UNL1       -0.0035
     14 N         142.9938  138.7882  168.5502 N.am    1  UNL1       -0.3283
     15 C         141.8603  139.7171  168.2310 C.2     1  UNL1        0.2261
     16 O         140.5281  139.5309  168.8949 O.2     1  UNL1       -0.2747
     17 H         142.8636  138.0562  169.1956 H       1  UNL1        0.1450
     18 H         143.8681  138.9104  168.1145 H       1  UNL1        0.1450
     19 C         141.9889  139.8486  166.1176 C.3     1  UNL1        0.0331
     20 C         143.1375  139.4097  165.2585 C.3     1  UNL1        0.0198
     21 C         142.6167  138.4207  164.2581 C.3     1  UNL1        0.0722
     22 N         141.1462  138.2485  164.4989 N.3     1  UNL1       -0.2723
     23 C         140.7582  139.1310  165.6481 C.3     1  UNL1        0.0732
     24 C         140.2254  137.3514  163.7261 C.3     1  UNL1        0.0768
     25 C         138.8579  137.8327  163.3410 C.3     1  UNL1        0.0437
     26 C         138.6641  139.2444  162.8722 C.ar    1  UNL1       -0.0209
     27 C         138.8847  139.5927  161.4300 C.ar    1  UNL1       -0.0011
     28 C         138.6910  141.0043  160.9612 C.ar    1  UNL1        0.0362
     29 C         138.2765  142.0676  161.9346 C.ar    1  UNL1        0.1346
     30 C         138.0558  141.7194  163.3769 C.ar    1  UNL1        0.0152
     31 C         138.2496  140.3078  163.8457 C.ar    1  UNL1       -0.0054
     32 C         137.6537  142.9707  164.0997 C.3     1  UNL1        0.0767
     33 C         137.6258  144.0923  163.1041 C.3     1  UNL1        0.2102
     34 O         138.0107  143.5342  161.7661 O.3     1  UNL1       -0.4754
@<TRIPOS>BOND
     1    14    15   am
     2    15    16    2
     3    15     1    1
     4     1     2    1
     5     2     3   ar
     6     3     4   ar
     7     4     5   ar
     8     5     6   ar
     9     6     7   ar
    10     1     8    1
    11     8     9   ar
    12     9    10   ar
    13    10    11   ar
    14    11    12   ar
    15    12    13   ar
    16    19     1    1
    17    19    20    1
    18    20    21    1
    19    21    22    1
    20    22    24    1
    21    24    25    1
    22    25    26    1
    23    26    27   ar
    24    27    28   ar
    25    28    29   ar
    26    29    30   ar
    27    30    31   ar
    28    30    32    1
    29    32    33    1
    30    33    34    1
    31    22    23    1
    32     7     2   ar
    33    13     8   ar
    34    23    19    1
    35    31    26   ar
    36    34    29    1
    37    14    17    1
    38    14    18    1
@<TRIPOS>MOLECULE
*****
 34 38 0 0 0
SMALL
GASTEIGER

@<TRIPOS>ATOM
      1 C         142.5773  141.0188  166.3681 C.3     1  UNL1        0.1073
      2 C         142.1555  141.8255  167.5603 C.ar    1  UNL1       -0.0108
      3 C         143.0787  141.9686  168.7337 C.ar    1  UNL1       -0.0035
      4 C         142.6569  142.7753  169.9259 C.ar    1  UNL1       -0.0003
      5 C         141.3119  143.4389  169.9446 C.ar    1  UNL1       -0.0000
      6 C         140.3886  143.2958  168.7712 C.ar    1  UNL1       -0.0003
      7 C         140.8104  142.4891  167.5790 C.ar    1  UNL1       -0.0035
      8 C         142.8827  142.2829  165.6208 C.ar    1  UNL1       -0.0108
      9 C         144.1430  143.0417  165.9141 C.ar    1  UNL1       -0.0035
     10 C         144.4485  144.3058  165.1667 C.ar    1  UNL1       -0.0003
     11 C         143.4937  144.8112  164.1261 C.ar    1  UNL1       -0.0000
     12 C         142.2334  144.0525  163.8328 C.ar    1  UNL1       -0.0003
     13 C         141.9279  142.7884  164.5801 C.ar    1  UNL1       -0.0035
     14 N         143.3791  138.8073  167.4711 N.am    1  UNL1       -0.3283
     15 C         142.2718  139.7546  167.1155 C.2     1  UNL1        0.2261
     16 O         140.8589  139.4378  167.5073 O.2     1  UNL1       -0.2747
     17 H         143.1786  137.9776  167.9617 H       1  UNL1        0.1450
     18 H         144.3064  139.0152  167.2140 H       1  UNL1        0.1450
     19 C         142.9990  140.2121  165.1759 C.3     1  UNL1        0.0331
     20 C         144.3788  140.1601  164.5899 C.3     1  UNL1        0.0198
     21 C         144.3476  139.2316  163.4122 C.3     1  UNL1        0.0722
     22 N         142.9485  138.7096  163.2704 N.3     1  UNL1       -0.2723
     23 C         142.1150  139.3156  164.3604 C.3     1  UNL1        0.0732
     24 C         142.4674  137.7502  162.2226 C.3     1  UNL1        0.0768
     25 C         141.5050  138.2115  161.1685 C.3     1  UNL1        0.0437
     26 C         140.3469  139.0885  161.5423 C.ar    1  UNL1       -0.0209
     27 C         139.0377  138.4733  161.9389 C.ar    1  UNL1       -0.0011
     28 C         137.8796  139.3503  162.3127 C.ar    1  UNL1        0.0362
     29 C         138.0307  140.8425  162.2899 C.ar    1  UNL1        0.1346
     30 C         139.3400  141.4577  161.8932 C.ar    1  UNL1        0.0152
     31 C         140.4981  140.5807  161.5194 C.ar    1  UNL1       -0.0054
     32 C         139.1917  142.9487  161.9633 C.3     1  UNL1        0.0767
     33 C         137.7908  143.2549  162.4033 C.3     1  UNL1        0.2102
     34 O         137.0732  141.9532  162.6051 O.3     1  UNL1       -0.4754
@<TRIPOS>BOND
     1    14    15   am
     2    15    16    2
     3    15     1    1
     4     1     2    1
     5     2     3   ar
     6     3     4   ar
     7     4     5   ar
     8     5     6   ar
     9     6     7   ar
    10     1     8    1
    11     8     9   ar
    12     9    10   ar
    13    10    11   ar
    14    11    12   ar
    15    12    13   ar
    16    19     1    1
    17    19    20    1
    18    20    21    1
    19    21    22    1
    20    22    24    1
    21    24    25    1
    22    25    26    1
    23    26    27   ar
    24    27    28   ar
    25    28    29   ar
    26    29    30   ar
    27    30    31   ar
    28    30    32    1
    29    32    33    1
    30    33    34    1
    31    22    23    1
    32     7     2   ar
    33    13     8   ar
    34    23    19    1
    35    31    26   ar
    36    34    29    1
    37    14    17    1
    38    14    18    1
@<TRIPOS>MOLECULE
*****
 34 38 0 0 0
SMALL
GASTEIGER

@<TRIPOS>ATOM
      1 C         142.1054  140.9256  166.9694 C.3     1  UNL1        0.1073
      2 C         142.0300  141.8749  168.1283 C.ar    1  UNL1       -0.0108
      3 C         140.7843  142.6773  168.3608 C.ar    1  UNL1       -0.0035
      4 C         140.7089  143.6265  169.5198 C.ar    1  UNL1       -0.0003
      5 C         141.8793  143.7733  170.4463 C.ar    1  UNL1       -0.0000
      6 C         143.1251  142.9709  170.2139 C.ar    1  UNL1       -0.0003
      7 C         143.2005  142.0217  169.0549 C.ar    1  UNL1       -0.0035
      8 C         142.3210  142.0809  166.0372 C.ar    1  UNL1       -0.0108
      9 C         141.1748  142.6209  165.2345 C.ar    1  UNL1       -0.0035
     10 C         141.3904  143.7761  164.3024 C.ar    1  UNL1       -0.0003
     11 C         142.7524  144.3913  164.1730 C.ar    1  UNL1       -0.0000
     12 C         143.8986  143.8513  164.9757 C.ar    1  UNL1       -0.0003
     13 C         143.6830  142.6961  165.9078 C.ar    1  UNL1       -0.0035
     14 N         143.0190  138.8311  168.2057 N.am    1  UNL1       -0.3283
     15 C         141.8897  139.7704  167.9016 C.2     1  UNL1        0.2261
     16 O         140.5447  139.5545  168.5296 O.2     1  UNL1       -0.2747
     17 H         142.8775  138.0729  168.8175 H       1  UNL1        0.1450
     18 H         143.9017  138.9728  167.7934 H       1  UNL1        0.1450
     19 C         142.1808  139.9764  165.8104 C.3     1  UNL1        0.0331
     20 C         143.3967  139.6961  164.9779 C.3     1  UNL1        0.0198
     21 C         143.0208  138.6872  163.9334 C.3     1  UNL1        0.0722
     22 N         141.5726  138.3441  164.1203 N.3     1  UNL1       -0.2723
     23 C         141.0534  139.1408  165.2803 C.3     1  UNL1        0.0732
     24 C         140.7823  137.3744  163.2925 C.3     1  UNL1        0.0768
     25 C         139.9788  137.8657  162.1251 C.3     1  UNL1        0.0437
     26 C         139.5072  139.2892  162.0850 C.ar    1  UNL1       -0.0209
     27 C         138.1832  139.6578  162.6857 C.ar    1  UNL1       -0.0011
     28 C         137.7116  141.0812  162.6457 C.ar    1  UNL1        0.0362
     29 C         138.5642  142.1359  162.0049 C.ar    1  UNL1        0.1346
     30 C         139.8883  141.7673  161.4041 C.ar    1  UNL1        0.0152
     31 C         140.3598  140.3440  161.4442 C.ar    1  UNL1       -0.0054
     32 C         140.5067  143.0141  160.8446 C.3     1  UNL1        0.0767
     33 C         139.5647  144.1533  161.0996 C.3     1  UNL1        0.2102
     34 O         138.3642  143.6106  161.8167 O.3     1  UNL1       -0.4754
@<TRIPOS>BOND
     1    14    15   am
     2    15    16    2
     3    15     1    1
     4     1     2    1
     5     2     3   ar
     6     3     4   ar
     7     4     5   ar
     8     5     6   ar
     9     6     7   ar
    10     1     8    1
    11     8     9   ar
    12     9    10   ar
    13    10    11   ar
    14    11    12   ar
    15    12    13   ar
    16    19     1    1
    17    19    20    1
    18    20    21    1
    19    21    22    1
    20    22    24    1
    21    24    25    1
    22    25    26    1
    23    26    27   ar
    24    27    28   ar
    25    28    29   ar
    26    29    30   ar
    27    30    31   ar
    28    30    32    1
    29    32    33    1
    30    33    34    1
    31    22    23    1
    32     7     2   ar
    33    13     8   ar
    34    23    19    1
    35    31    26   ar
    36    34    29    1
    37    14    17    1
    38    14    18    1
@<TRIPOS>MOLECULE
*****
 34 38 0 0 0
SMALL
GASTEIGER

@<TRIPOS>ATOM
      1 C         141.5237  141.9313  166.5818 C.3     1  UNL1        0.1073
      2 C         140.7372  141.8080  167.8531 C.ar    1  UNL1       -0.0108
      3 C         140.7353  142.9325  168.8458 C.ar    1  UNL1       -0.0035
      4 C         139.9489  142.8092  170.1171 C.ar    1  UNL1       -0.0003
      5 C         139.1643  141.5616  170.3957 C.ar    1  UNL1       -0.0000
      6 C         139.1662  140.4371  169.4030 C.ar    1  UNL1       -0.0003
      7 C         139.9526  140.5603  168.1317 C.ar    1  UNL1       -0.0035
      8 C         140.2548  142.1773  165.8207 C.ar    1  UNL1       -0.0108
      9 C         139.6449  143.5475  165.8023 C.ar    1  UNL1       -0.0035
     10 C         138.3759  143.7935  165.0412 C.ar    1  UNL1       -0.0003
     11 C         137.7169  142.6692  164.2984 C.ar    1  UNL1       -0.0000
     12 C         138.3269  141.2989  164.3168 C.ar    1  UNL1       -0.0003
     13 C         139.5958  141.0530  165.0779 C.ar    1  UNL1       -0.0035
     14 N         143.7974  142.7876  167.5022 N.am    1  UNL1       -0.3283
     15 C         142.7926  141.6853  167.3430 C.2     1  UNL1        0.2261
     16 O         143.0566  140.3370  167.9449 O.2     1  UNL1       -0.2747
     17 H         144.6303  142.6261  168.0017 H       1  UNL1        0.1450
     18 H         143.6241  143.6725  167.1071 H       1  UNL1        0.1450
     19 C         142.3101  142.0545  165.3105 C.3     1  UNL1        0.0331
     20 C         142.4335  143.2881  164.4661 C.3     1  UNL1        0.0198
     21 C         143.3109  142.9618  163.2940 C.3     1  UNL1        0.0722
     22 N         143.7299  141.5265  163.4141 N.3     1  UNL1       -0.2723
     23 C         143.1114  140.9657  164.6603 C.3     1  UNL1        0.0732
     24 C         144.6124  140.7825  162.4561 C.3     1  UNL1        0.0768
     25 C         144.0245  139.7456  161.5455 C.3     1  UNL1        0.0437
     26 C         142.6660  139.1782  161.8331 C.ar    1  UNL1       -0.0209
     27 C         142.5263  137.9849  162.7310 C.ar    1  UNL1       -0.0011
     28 C         141.1679  137.4176  163.0186 C.ar    1  UNL1        0.0362
     29 C         139.9491  138.0436  162.4082 C.ar    1  UNL1        0.1346
     30 C         140.0887  139.2369  161.5102 C.ar    1  UNL1        0.0152
     31 C         141.4472  139.8043  161.2226 C.ar    1  UNL1       -0.0054
     32 C         138.7167  139.6379  161.0553 C.3     1  UNL1        0.0767
     33 C         137.7292  138.6924  161.6723 C.3     1  UNL1        0.2102
     34 O         138.4908  137.7070  162.5084 O.3     1  UNL1       -0.4754
@<TRIPOS>BOND
     1    14    15   am
     2    15    16    2
     3    15     1    1
     4     1     2    1
     5     2     3   ar
     6     3     4   ar
     7     4     5   ar
     8     5     6   ar
     9     6     7   ar
    10     1     8    1
    11     8     9   ar
    12     9    10   ar
    13    10    11   ar
    14    11    12   ar
    15    12    13   ar
    16    19     1    1
    17    19    20    1
    18    20    21    1
    19    21    22    1
    20    22    24    1
    21    24    25    1
    22    25    26    1
    23    26    27   ar
    24    27    28   ar
    25    28    29   ar
    26    29    30   ar
    27    30    31   ar
    28    30    32    1
    29    32    33    1
    30    33    34    1
    31    22    23    1
    32     7     2   ar
    33    13     8   ar
    34    23    19    1
    35    31    26   ar
    36    34    29    1
    37    14    17    1
    38    14    18    1
@<TRIPOS>MOLECULE
*****
 34 38 0 0 0
SMALL
GASTEIGER

@<TRIPOS>ATOM
      1 C         141.5536  141.0213  167.1471 C.3     1  UNL1        0.1073
      2 C         140.7743  141.4647  168.3496 C.ar    1  UNL1       -0.0108
      3 C         140.8810  142.8809  168.8321 C.ar    1  UNL1       -0.0035
      4 C         140.1017  143.3243  170.0346 C.ar    1  UNL1       -0.0003
      5 C         139.2156  142.3515  170.7546 C.ar    1  UNL1       -0.0000
      6 C         139.1088  140.9353  170.2721 C.ar    1  UNL1       -0.0003
      7 C         139.8881  140.4919  169.0696 C.ar    1  UNL1       -0.0035
      8 C         140.4539  141.5126  166.2532 C.ar    1  UNL1       -0.0108
      9 C         140.5134  142.8990  165.6836 C.ar    1  UNL1       -0.0035
     10 C         139.4136  143.3903  164.7896 C.ar    1  UNL1       -0.0003
     11 C         138.2544  142.4953  164.4654 C.ar    1  UNL1       -0.0000
     12 C         138.1949  141.1090  165.0350 C.ar    1  UNL1       -0.0003
     13 C         139.2946  140.6176  165.9289 C.ar    1  UNL1       -0.0035
     14 N         142.9433  139.0612  168.1357 N.am    1  UNL1       -0.3283
     15 C         142.6534  140.5299  168.0411 C.2     1  UNL1        0.2261
     16 O         143.4632  141.5073  168.8404 O.2     1  UNL1       -0.2747
     17 H         143.6650  138.7387  168.7225 H       1  UNL1        0.1450
     18 H         142.4117  138.4198  167.6111 H       1  UNL1        0.1450
     19 C         142.3329  140.5779  165.9446 C.3     1  UNL1        0.0331
     20 C         142.0119  139.4020  165.0703 C.3     1  UNL1        0.0198
     21 C         143.0507  139.3299  163.9906 C.3     1  UNL1        0.0722
     22 N         144.0137  140.4611  164.1976 N.3     1  UNL1       -0.2723
     23 C         143.5702  141.2324  165.4052 C.3     1  UNL1        0.0732
     24 C         145.2103  140.7674  163.3465 C.3     1  UNL1        0.0768
     25 C         145.3672  142.1280  162.7348 C.3     1  UNL1        0.0437
     26 C         144.2153  143.0889  162.7375 C.ar    1  UNL1       -0.0209
     27 C         144.1720  144.2051  163.7385 C.ar    1  UNL1       -0.0011
     28 C         143.0202  145.1659  163.7412 C.ar    1  UNL1        0.0362
     29 C         141.9116  145.0105  162.7428 C.ar    1  UNL1        0.1346
     30 C         141.9548  143.8943  161.7417 C.ar    1  UNL1        0.0152
     31 C         143.1066  142.9334  161.7390 C.ar    1  UNL1       -0.0054
     32 C         140.7270  143.9916  160.8856 C.3     1  UNL1        0.0767
     33 C         139.9249  145.1680  161.3575 C.3     1  UNL1        0.2102
     34 O         140.6570  145.7977  162.5054 O.3     1  UNL1       -0.4754
@<TRIPOS>BOND
     1    14    15   am
     2    15    16    2
     3    15     1    1
     4     1     2    1
     5     2     3   ar
     6     3     4   ar
     7     4     5   ar
     8     5     6   ar
     9     6     7   ar
    10     1     8    1
    11     8     9   ar
    12     9    10   ar
    13    10    11   ar
    14    11    12   ar
    15    12    13   ar
    16    19     1    1
    17    19    20    1
    18    20    21    1
    19    21    22    1
    20    22    24    1
    21    24    25    1
    22    25    26    1
    23    26    27   ar
    24    27    28   ar
    25    28    29   ar
    26    29    30   ar
    27    30    31   ar
    28    30    32    1
    29    32    33    1
    30    33    34    1
    31    22    23    1
    32     7     2   ar
    33    13     8   ar
    34    23    19    1
    35    31    26   ar
    36    34    29    1
    37    14    17    1
    38    14    18    1
@<TRIPOS>MOLECULE
*****
 34 38 0 0 0
SMALL
GASTEIGER

@<TRIPOS>ATOM
      1 C         142.4210  141.0657  166.3447 C.3     1  UNL1        0.1073
      2 C         142.0640  141.8723  167.5579 C.ar    1  UNL1       -0.0108
      3 C         140.7161  142.5230  167.6558 C.ar    1  UNL1       -0.0035
      4 C         140.3590  143.3296  168.8690 C.ar    1  UNL1       -0.0003
      5 C         141.3499  143.4857  169.9842 C.ar    1  UNL1       -0.0000
      6 C         142.6979  142.8351  169.8862 C.ar    1  UNL1       -0.0003
      7 C         143.0549  142.0284  168.6731 C.ar    1  UNL1       -0.0035
      8 C         142.7864  142.3244  165.6152 C.ar    1  UNL1       -0.0108
      9 C         144.1164  142.9735  165.8593 C.ar    1  UNL1       -0.0035
     10 C         144.4818  144.2322  165.1299 C.ar    1  UNL1       -0.0003
     11 C         143.5171  144.8418  164.1563 C.ar    1  UNL1       -0.0000
     12 C         142.1870  144.1927  163.9123 C.ar    1  UNL1       -0.0003
     13 C         141.8217  142.9340  164.6417 C.ar    1  UNL1       -0.0035
     14 N         143.1326  138.9182  167.6223 N.am    1  UNL1       -0.3283
     15 C         142.0557  139.8069  167.0742 C.2     1  UNL1        0.2261
     16 O         140.6133  139.4370  167.2556 O.2     1  UNL1       -0.2747
     17 H         142.8928  138.0920  168.1011 H       1  UNL1        0.1450
     18 H         144.0792  139.1610  167.5032 H       1  UNL1        0.1450
     19 C         142.7781  140.2590  165.1316 C.3     1  UNL1        0.0331
     20 C         144.1666  139.9459  164.6582 C.3     1  UNL1        0.0198
     21 C         144.0559  139.1171  163.4128 C.3     1  UNL1        0.0722
     22 N         142.5991  138.9180  163.1165 N.3     1  UNL1       -0.2723
     23 C         141.8093  139.6237  164.1786 C.3     1  UNL1        0.0732
     24 C         142.0316  138.1484  161.9608 C.3     1  UNL1        0.0768
     25 C         141.7340  138.8478  160.6676 C.3     1  UNL1        0.0437
     26 C         141.9158  140.3329  160.5591 C.ar    1  UNL1       -0.0209
     27 C         143.2603  140.9006  160.2131 C.ar    1  UNL1       -0.0011
     28 C         143.4421  142.3855  160.1045 C.ar    1  UNL1        0.0362
     29 C         142.2792  143.3028  160.3419 C.ar    1  UNL1        0.1346
     30 C         140.9346  142.7351  160.6879 C.ar    1  UNL1        0.0152
     31 C         140.7528  141.2502  160.7965 C.ar    1  UNL1       -0.0054
     32 C         139.9803  143.8787  160.8655 C.3     1  UNL1        0.0767
     33 C         140.7352  145.1532  160.6293 C.3     1  UNL1        0.2102
     34 O         142.1560  144.7973  160.3057 O.3     1  UNL1       -0.4754
@<TRIPOS>BOND
     1    14    15   am
     2    15    16    2
     3    15     1    1
     4     1     2    1
     5     2     3   ar
     6     3     4   ar
     7     4     5   ar
     8     5     6   ar
     9     6     7   ar
    10     1     8    1
    11     8     9   ar
    12     9    10   ar
    13    10    11   ar
    14    11    12   ar
    15    12    13   ar
    16    19     1    1
    17    19    20    1
    18    20    21    1
    19    21    22    1
    20    22    24    1
    21    24    25    1
    22    25    26    1
    23    26    27   ar
    24    27    28   ar
    25    28    29   ar
    26    29    30   ar
    27    30    31   ar
    28    30    32    1
    29    32    33    1
    30    33    34    1
    31    22    23    1
    32     7     2   ar
    33    13     8   ar
    34    23    19    1
    35    31    26   ar
    36    34    29    1
    37    14    17    1
    38    14    18    1
@<TRIPOS>MOLECULE
*****
 34 38 0 0 0
SMALL
GASTEIGER

@<TRIPOS>ATOM
      1 C         140.5624  141.1255  167.0754 C.3     1  UNL1        0.1073
      2 C         141.1590  141.9369  168.1869 C.ar    1  UNL1       -0.0108
      3 C         140.2960  142.8753  168.9772 C.ar    1  UNL1       -0.0035
      4 C         140.8927  143.6867  170.0888 C.ar    1  UNL1       -0.0003
      5 C         142.3523  143.5598  170.4100 C.ar    1  UNL1       -0.0000
      6 C         143.2153  142.6214  169.6197 C.ar    1  UNL1       -0.0003
      7 C         142.6187  141.8100  168.5082 C.ar    1  UNL1       -0.0035
      8 C         140.8423  142.2401  166.1114 C.ar    1  UNL1       -0.0108
      9 C         142.1648  142.3078  165.4068 C.ar    1  UNL1       -0.0035
     10 C         142.4447  143.4225  164.4428 C.ar    1  UNL1       -0.0003
     11 C         141.4022  144.4694  164.1835 C.ar    1  UNL1       -0.0000
     12 C         140.0798  144.4017  164.8882 C.ar    1  UNL1       -0.0003
     13 C         139.7998  143.2870  165.8521 C.ar    1  UNL1       -0.0035
     14 N         138.8686  139.6882  168.4229 N.am    1  UNL1       -0.3283
     15 C         140.2824  140.0108  168.0394 C.2     1  UNL1        0.2261
     16 O         141.4164  139.2189  168.6198 O.2     1  UNL1       -0.2747
     17 H         138.6849  138.9567  169.0555 H       1  UNL1        0.1450
     18 H         138.1244  140.2081  168.0418 H       1  UNL1        0.1450
     19 C         139.9657  140.3141  165.9638 C.3     1  UNL1        0.0331
     20 C         138.5999  140.4991  165.3721 C.3     1  UNL1        0.0198
     21 C         138.4202  139.4745  164.2914 C.3     1  UNL1        0.0722
     22 N         139.6750  138.6562  164.2151 N.3     1  UNL1       -0.2723
     23 C         140.6302  139.1751  165.2487 C.3     1  UNL1        0.0732
     24 C         139.9299  137.5188  163.2711 C.3     1  UNL1        0.0768
     25 C         141.2787  137.3608  162.6340 C.3     1  UNL1        0.0437
     26 C         142.1740  138.5528  162.4680 C.ar    1  UNL1       -0.0209
     27 C         141.9445  139.5115  161.3375 C.ar    1  UNL1       -0.0011
     28 C         142.8398  140.7035  161.1714 C.ar    1  UNL1        0.0362
     29 C         143.9647  140.9367  162.1360 C.ar    1  UNL1        0.1346
     30 C         144.1942  139.9780  163.2665 C.ar    1  UNL1        0.0152
     31 C         143.2989  138.7860  163.4326 C.ar    1  UNL1       -0.0054
     32 C         145.3744  140.4643  164.0543 C.3     1  UNL1        0.0767
     33 C         145.8743  141.7236  163.4107 C.3     1  UNL1        0.2102
     34 O         145.0030  142.0156  162.2250 O.3     1  UNL1       -0.4754
@<TRIPOS>BOND
     1    14    15   am
     2    15    16    2
     3    15     1    1
     4     1     2    1
     5     2     3   ar
     6     3     4   ar
     7     4     5   ar
     8     5     6   ar
     9     6     7   ar
    10     1     8    1
    11     8     9   ar
    12     9    10   ar
    13    10    11   ar
    14    11    12   ar
    15    12    13   ar
    16    19     1    1
    17    19    20    1
    18    20    21    1
    19    21    22    1
    20    22    24    1
    21    24    25    1
    22    25    26    1
    23    26    27   ar
    24    27    28   ar
    25    28    29   ar
    26    29    30   ar
    27    30    31   ar
    28    30    32    1
    29    32    33    1
    30    33    34    1
    31    22    23    1
    32     7     2   ar
    33    13     8   ar
    34    23    19    1
    35    31    26   ar
    36    34    29    1
    37    14    17    1
    38    14    18    1
@<TRIPOS>MOLECULE
*****
 34 38 0 0 0
SMALL
GASTEIGER

@<TRIPOS>ATOM
      1 C         140.9966  140.5094  167.0667 C.3     1  UNL1        0.1073
      2 C         141.9024  140.6482  168.2543 C.ar    1  UNL1       -0.0108
      3 C         142.0064  139.5335  169.2525 C.ar    1  UNL1       -0.0035
      4 C         142.9121  139.6723  170.4401 C.ar    1  UNL1       -0.0003
      5 C         143.7138  140.9258  170.6294 C.ar    1  UNL1       -0.0000
      6 C         143.6098  142.0406  169.6312 C.ar    1  UNL1       -0.0003
      7 C         142.7041  141.9018  168.4436 C.ar    1  UNL1       -0.0035
      8 C         142.1923  140.3991  166.1677 C.ar    1  UNL1       -0.0108
      9 C         142.5960  141.5622  165.3107 C.ar    1  UNL1       -0.0035
     10 C         143.7917  141.4519  164.4118 C.ar    1  UNL1       -0.0003
     11 C         144.5836  140.1787  164.3697 C.ar    1  UNL1       -0.0000
     12 C         144.1799  139.0157  165.2267 C.ar    1  UNL1       -0.0003
     13 C         142.9842  139.1259  166.1256 C.ar    1  UNL1       -0.0035
     14 N         138.8234  139.4855  168.0560 N.am    1  UNL1       -0.3283
     15 C         139.8009  140.6196  167.9658 C.2     1  UNL1        0.2261
     16 O         139.5830  141.8640  168.7745 O.2     1  UNL1       -0.2747
     17 H         138.0386  139.5579  168.6461 H       1  UNL1        0.1450
     18 H         138.9665  138.6688  167.5252 H       1  UNL1        0.1450
     19 C         140.0909  140.3706  165.8791 C.3     1  UNL1        0.0331
     20 C         139.9432  139.1493  165.0208 C.3     1  UNL1        0.0198
     21 C         138.9349  139.4526  163.9525 C.3     1  UNL1        0.0722
     22 N         138.4594  140.8614  164.1505 N.3     1  UNL1       -0.2723
     23 C         139.1738  141.4287  165.3412 C.3     1  UNL1        0.0732
     24 C         137.4471  141.5772  163.3062 C.3     1  UNL1        0.0768
     25 C         137.8853  142.6642  162.3701 C.3     1  UNL1        0.0437
     26 C         139.3430  142.9877  162.2262 C.ar    1  UNL1       -0.0209
     27 C         140.1553  142.3273  161.1520 C.ar    1  UNL1       -0.0011
     28 C         141.6129  142.6507  161.0081 C.ar    1  UNL1        0.0362
     29 C         142.2582  143.6346  161.9384 C.ar    1  UNL1        0.1346
     30 C         141.4459  144.2950  163.0127 C.ar    1  UNL1        0.0152
     31 C         139.9883  143.9716  163.1566 C.ar    1  UNL1       -0.0054
     32 C         142.3496  145.2170  163.7765 C.3     1  UNL1        0.0767
     33 C         143.7204  145.1263  163.1743 C.3     1  UNL1        0.2102
     34 O         143.6639  144.1483  162.0383 O.3     1  UNL1       -0.4754
@<TRIPOS>BOND
     1    14    15   am
     2    15    16    2
     3    15     1    1
     4     1     2    1
     5     2     3   ar
     6     3     4   ar
     7     4     5   ar
     8     5     6   ar
     9     6     7   ar
    10     1     8    1
    11     8     9   ar
    12     9    10   ar
    13    10    11   ar
    14    11    12   ar
    15    12    13   ar
    16    19     1    1
    17    19    20    1
    18    20    21    1
    19    21    22    1
    20    22    24    1
    21    24    25    1
    22    25    26    1
    23    26    27   ar
    24    27    28   ar
    25    28    29   ar
    26    29    30   ar
    27    30    31   ar
    28    30    32    1
    29    32    33    1
    30    33    34    1
    31    22    23    1
    32     7     2   ar
    33    13     8   ar
    34    23    19    1
    35    31    26   ar
    36    34    29    1
    37    14    17    1
    38    14    18    1
@<TRIPOS>MOLECULE
*****
 34 38 0 0 0
SMALL
GASTEIGER

@<TRIPOS>ATOM
      1 C         141.4726  142.1965  166.2055 C.3     1  UNL1        0.1073
      2 C         140.7461  141.8856  167.4804 C.ar    1  UNL1       -0.0108
      3 C         139.9938  140.5954  167.6195 C.ar    1  UNL1       -0.0035
      4 C         139.2672  140.2845  168.8944 C.ar    1  UNL1       -0.0003
      5 C         139.2930  141.2637  170.0303 C.ar    1  UNL1       -0.0000
      6 C         140.0453  142.5540  169.8913 C.ar    1  UNL1       -0.0003
      7 C         140.7719  142.8649  168.6164 C.ar    1  UNL1       -0.0035
      8 C         140.1746  142.5811  165.5596 C.ar    1  UNL1       -0.0108
      9 C         139.4528  141.5998  164.6844 C.ar    1  UNL1       -0.0035
     10 C         138.1548  141.9843  164.0384 C.ar    1  UNL1       -0.0003
     11 C         137.5786  143.3501  164.2677 C.ar    1  UNL1       -0.0000
     12 C         138.3004  144.3314  165.1429 C.ar    1  UNL1       -0.0003
     13 C         139.5985  143.9469  165.7889 C.ar    1  UNL1       -0.0035
     14 N         143.0503  140.3743  167.1756 N.am    1  UNL1       -0.3283
     15 C         142.7707  141.8119  166.8516 C.2     1  UNL1        0.2261
     16 O         143.7891  142.8652  167.1735 O.2     1  UNL1       -0.2747
     17 H         143.9022  140.1219  167.5996 H       1  UNL1        0.1450
     18 H         142.3818  139.6831  166.9643 H       1  UNL1        0.1450
     19 C         142.1992  142.5074  164.9306 C.3     1  UNL1        0.0331
     20 C         142.3874  143.8703  164.3329 C.3     1  UNL1        0.0198
     21 C         143.1697  143.7152  163.0625 C.3     1  UNL1        0.0722
     22 N         143.4649  142.2566  162.8750 N.3     1  UNL1       -0.2723
     23 C         142.8651  141.5101  164.0295 C.3     1  UNL1        0.0732
     24 C         144.2262  141.6507  161.7333 C.3     1  UNL1        0.0768
     25 C         143.4891  140.9810  160.6117 C.3     1  UNL1        0.0437
     26 C         142.0106  140.7506  160.7179 C.ar    1  UNL1       -0.0209
     27 C         141.0518  141.8129  160.2686 C.ar    1  UNL1       -0.0011
     28 C         139.5734  141.5825  160.3748 C.ar    1  UNL1        0.0362
     29 C         139.0539  140.2897  160.9304 C.ar    1  UNL1        0.1346
     30 C         140.0127  139.2273  161.3798 C.ar    1  UNL1        0.0152
     31 C         141.4911  139.4577  161.2735 C.ar    1  UNL1       -0.0054
     32 C         139.2120  138.0626  161.8820 C.3     1  UNL1        0.0767
     33 C         137.7583  138.4052  161.7431 C.3     1  UNL1        0.2102
     34 O         137.6605  139.7816  161.1549 O.3     1  UNL1       -0.4754
@<TRIPOS>BOND
     1    14    15   am
     2    15    16    2
     3    15     1    1
     4     1     2    1
     5     2     3   ar
     6     3     4   ar
     7     4     5   ar
     8     5     6   ar
     9     6     7   ar
    10     1     8    1
    11     8     9   ar
    12     9    10   ar
    13    10    11   ar
    14    11    12   ar
    15    12    13   ar
    16    19     1    1
    17    19    20    1
    18    20    21    1
    19    21    22    1
    20    22    24    1
    21    24    25    1
    22    25    26    1
    23    26    27   ar
    24    27    28   ar
    25    28    29   ar
    26    29    30   ar
    27    30    31   ar
    28    30    32    1
    29    32    33    1
    30    33    34    1
    31    22    23    1
    32     7     2   ar
    33    13     8   ar
    34    23    19    1
    35    31    26   ar
    36    34    29    1
    37    14    17    1
    38    14    18    1
