@<TRIPOS>MOLECULE
*****
 25 29 0 0 0
SMALL
GASTEIGER

@<TRIPOS>ATOM
      1 O         137.5361  138.7150  167.2144 O.2     1  UNL1       -0.2666
      2 C         138.8506  139.2861  166.7716 C.2     1  UNL1        0.2834
      3 C         139.3029  139.1142  165.3517 C.ar    1  UNL1        0.1985
      4 N         138.6717  138.4353  164.1725 N.ar    1  UNL1       -0.2227
      5 C         139.5960  138.5867  163.0009 C.ar    1  UNL1        0.0988
      6 C         139.4980  138.1210  161.5784 C.ar    1  UNL1        0.0206
      7 C         140.6026  138.4279  160.6111 C.ar    1  UNL1        0.0016
      8 C         141.8051  139.2005  161.0662 C.ar    1  UNL1        0.0015
      9 C         141.9030  139.6662  162.4887 C.ar    1  UNL1        0.0174
     10 C         140.7985  139.3593  163.4560 C.ar    1  UNL1        0.0790
     11 N         140.6173  139.6853  164.9089 N.ar    1  UNL1       -0.3060
     12 C         141.4794  140.4283  165.8859 C.3     1  UNL1        0.1291
     13 C         141.0271  140.6003  167.3057 C.3     1  UNL1        0.1183
     14 N         139.7127  140.0292  167.7486 N.am    1  UNL1       -0.2716
     15 C         143.1055  140.4387  162.9438 C.ar    1  UNL1        0.0037
     16 C         144.2362  139.7309  163.6298 C.ar    1  UNL1        0.0002
     17 C         145.4387  140.5035  164.0849 C.ar    1  UNL1        0.0023
     18 C         145.5105  141.9839  163.8541 C.ar    1  UNL1        0.0296
     19 C         144.3798  142.6917  163.1682 C.ar    1  UNL1        0.1401
     20 F         144.4516  144.1721  162.9374 F       1  UNL1       -0.2042
     21 C         143.1773  141.9191  162.7131 C.ar    1  UNL1        0.0297
     22 C         139.2604  140.2012  169.1684 C.3     1  UNL1        0.0938
     23 C         139.8300  141.3056  170.0084 C.3     1  UNL1        0.0199
     24 C         140.7704  141.7689  171.0812 C.3     1  UNL1        0.0018
     25 C         139.8761  142.7554  170.3906 C.3     1  UNL1        0.0018
@<TRIPOS>BOND
     1     1     2    2
     2     2     3    1
     3     3     4   ar
     4     4     5   ar
     5     5     6   ar
     6     6     7   ar
     7     7     8   ar
     8     8     9   ar
     9     9    15    1
    10    15    16   ar
    11    16    17   ar
    12    17    18   ar
    13    18    19   ar
    14    19    20    1
    15    19    21   ar
    16     9    10   ar
    17    10    11   ar
    18    11    12    1
    19    12    13    1
    20    13    14    1
    21    14    22    1
    22    22    23    1
    23    23    24    1
    24    24    25    1
    25    14     2   am
    26    25    23    1
    27    11     3   ar
    28    10     5   ar
    29    21    15   ar
@<TRIPOS>MOLECULE
*****
 25 29 0 0 0
SMALL
GASTEIGER

@<TRIPOS>ATOM
      1 O         140.7274  141.7026  161.2493 O.2     1  UNL1       -0.2666
      2 C         140.4711  141.8822  162.7163 C.2     1  UNL1        0.2834
      3 C         141.2057  141.0378  163.7150 C.ar    1  UNL1        0.1985
      4 N         142.2325  139.9564  163.5529 N.ar    1  UNL1       -0.2227
      5 C         142.6107  139.4676  164.9196 C.ar    1  UNL1        0.0988
      6 C         143.5747  138.4136  165.3775 C.ar    1  UNL1        0.0206
      7 C         143.7457  138.1390  166.8421 C.ar    1  UNL1        0.0016
      8 C         142.9527  138.9183  167.8490 C.ar    1  UNL1        0.0015
      9 C         141.9887  139.9724  167.3911 C.ar    1  UNL1        0.0174
     10 C         141.8177  140.2470  165.9265 C.ar    1  UNL1        0.0790
     11 N         140.9494  141.2174  165.1819 N.ar    1  UNL1       -0.3060
     12 C         139.9584  142.2414  165.6502 C.3     1  UNL1        0.1291
     13 C         139.2237  143.0858  164.6516 C.3     1  UNL1        0.1183
     14 N         139.4801  142.9062  163.1846 N.am    1  UNL1       -0.2716
     15 C         141.1957  140.7517  168.3980 C.ar    1  UNL1        0.0037
     16 C         139.9870  140.1370  169.0392 C.ar    1  UNL1        0.0002
     17 C         139.1940  140.9164  170.0461 C.ar    1  UNL1        0.0023
     18 C         139.6096  142.3105  170.4116 C.ar    1  UNL1        0.0296
     19 C         140.8183  142.9252  169.7704 C.ar    1  UNL1        0.1401
     20 F         141.2340  144.3194  170.1360 F       1  UNL1       -0.2042
     21 C         141.6113  142.1458  168.7636 C.ar    1  UNL1        0.0297
     22 C         138.7454  143.7507  162.1859 C.3     1  UNL1        0.0938
     23 C         139.4077  144.9596  161.5945 C.3     1  UNL1        0.0199
     24 C         139.6983  146.4307  161.6324 C.3     1  UNL1        0.0018
     25 C         140.2641  145.5826  160.5322 C.3     1  UNL1        0.0018
@<TRIPOS>BOND
     1     1     2    2
     2     2     3    1
     3     3     4   ar
     4     4     5   ar
     5     5     6   ar
     6     6     7   ar
     7     7     8   ar
     8     8     9   ar
     9     9    15    1
    10    15    16   ar
    11    16    17   ar
    12    17    18   ar
    13    18    19   ar
    14    19    20    1
    15    19    21   ar
    16     9    10   ar
    17    10    11   ar
    18    11    12    1
    19    12    13    1
    20    13    14    1
    21    14    22    1
    22    22    23    1
    23    23    24    1
    24    24    25    1
    25    14     2   am
    26    25    23    1
    27    11     3   ar
    28    10     5   ar
    29    21    15   ar
@<TRIPOS>MOLECULE
*****
 25 29 0 0 0
SMALL
GASTEIGER

@<TRIPOS>ATOM
      1 O         140.7625  141.9156  161.1620 O.2     1  UNL1       -0.2666
      2 C         141.1277  142.1798  162.5926 C.2     1  UNL1        0.2834
      3 C         140.4390  141.4290  163.6935 C.ar    1  UNL1        0.1985
      4 N         139.3693  140.3776  163.6749 N.ar    1  UNL1       -0.2227
      5 C         139.0734  139.9921  165.0940 C.ar    1  UNL1        0.0988
      6 C         138.1110  139.0057  165.6863 C.ar    1  UNL1        0.0206
      7 C         138.0355  138.8324  167.1743 C.ar    1  UNL1        0.0016
      8 C         138.9224  139.6456  168.0700 C.ar    1  UNL1        0.0015
      9 C         139.8847  140.6320  167.4777 C.ar    1  UNL1        0.0174
     10 C         139.9602  140.8052  165.9897 C.ar    1  UNL1        0.0790
     11 N         140.8042  141.6932  165.1242 N.ar    1  UNL1       -0.3060
     12 C         141.8581  142.7084  165.4539 C.3     1  UNL1        0.1291
     13 C         142.5468  143.4593  164.3531 C.3     1  UNL1        0.1183
     14 N         142.1815  143.1950  162.9224 N.am    1  UNL1       -0.2716
     15 C         140.7715  141.4451  168.3735 C.ar    1  UNL1        0.0037
     16 C         142.1284  140.9306  168.7532 C.ar    1  UNL1        0.0002
     17 C         143.0152  141.7437  169.6489 C.ar    1  UNL1        0.0023
     18 C         142.5452  143.0714  170.1649 C.ar    1  UNL1        0.0296
     19 C         141.1884  143.5859  169.7852 C.ar    1  UNL1        0.1401
     20 F         140.7183  144.9137  170.3013 F       1  UNL1       -0.2042
     21 C         140.3016  142.7728  168.8895 C.ar    1  UNL1        0.0297
     22 C         142.8702  143.9459  161.8215 C.3     1  UNL1        0.0938
     23 C         143.5243  143.1973  160.6982 C.3     1  UNL1        0.0199
     24 C         144.5636  142.2307  160.2128 C.3     1  UNL1        0.0018
     25 C         143.6180  142.8674  159.2379 C.3     1  UNL1        0.0018
@<TRIPOS>BOND
     1     1     2    2
     2     2     3    1
     3     3     4   ar
     4     4     5   ar
     5     5     6   ar
     6     6     7   ar
     7     7     8   ar
     8     8     9   ar
     9     9    15    1
    10    15    16   ar
    11    16    17   ar
    12    17    18   ar
    13    18    19   ar
    14    19    20    1
    15    19    21   ar
    16     9    10   ar
    17    10    11   ar
    18    11    12    1
    19    12    13    1
    20    13    14    1
    21    14    22    1
    22    22    23    1
    23    23    24    1
    24    24    25    1
    25    14     2   am
    26    25    23    1
    27    11     3   ar
    28    10     5   ar
    29    21    15   ar
@<TRIPOS>MOLECULE
*****
 25 29 0 0 0
SMALL
GASTEIGER

@<TRIPOS>ATOM
      1 O         142.8310  137.3726  160.5294 O.2     1  UNL1       -0.2666
      2 C         142.2646  138.6063  161.1674 C.2     1  UNL1        0.2834
      3 C         141.2997  138.4846  162.3095 C.ar    1  UNL1        0.1985
      4 N         140.7261  137.2923  163.0162 N.ar    1  UNL1       -0.2227
      5 C         139.8053  137.7891  164.0910 C.ar    1  UNL1        0.0988
      6 C         138.9633  137.0699  165.1027 C.ar    1  UNL1        0.0206
      7 C         138.1257  137.8501  166.0721 C.ar    1  UNL1        0.0016
      8 C         138.1302  139.3494  166.0298 C.ar    1  UNL1        0.0015
      9 C         138.9722  140.0686  165.0180 C.ar    1  UNL1        0.0174
     10 C         139.8097  139.2885  164.0486 C.ar    1  UNL1        0.0790
     11 N         140.7333  139.7183  162.9476 N.ar    1  UNL1       -0.3060
     12 C         141.1318  141.0737  162.4436 C.3     1  UNL1        0.1291
     13 C         142.0967  141.1954  161.3015 C.3     1  UNL1        0.1183
     14 N         142.6631  139.9617  160.6635 N.am    1  UNL1       -0.2716
     15 C         138.9766  141.5680  164.9756 C.ar    1  UNL1        0.0037
     16 C         139.9032  142.3408  165.8667 C.ar    1  UNL1        0.0002
     17 C         139.9077  143.8402  165.8243 C.ar    1  UNL1        0.0023
     18 C         138.9855  144.5668  164.8908 C.ar    1  UNL1        0.0296
     19 C         138.0589  143.7941  163.9997 C.ar    1  UNL1        0.1401
     20 F         137.1367  144.5207  163.0660 F       1  UNL1       -0.2042
     21 C         138.0545  142.2947  164.0420 C.ar    1  UNL1        0.0297
     22 C         143.6279  140.0834  159.5214 C.3     1  UNL1        0.0938
     23 C         143.8222  141.4062  158.8415 C.3     1  UNL1        0.0199
     24 C         144.7118  142.5514  158.4578 C.3     1  UNL1        0.0018
     25 C         143.2691  142.5523  158.0474 C.3     1  UNL1        0.0018
@<TRIPOS>BOND
     1     1     2    2
     2     2     3    1
     3     3     4   ar
     4     4     5   ar
     5     5     6   ar
     6     6     7   ar
     7     7     8   ar
     8     8     9   ar
     9     9    15    1
    10    15    16   ar
    11    16    17   ar
    12    17    18   ar
    13    18    19   ar
    14    19    20    1
    15    19    21   ar
    16     9    10   ar
    17    10    11   ar
    18    11    12    1
    19    12    13    1
    20    13    14    1
    21    14    22    1
    22    22    23    1
    23    23    24    1
    24    24    25    1
    25    14     2   am
    26    25    23    1
    27    11     3   ar
    28    10     5   ar
    29    21    15   ar
@<TRIPOS>MOLECULE
*****
 25 29 0 0 0
SMALL
GASTEIGER

@<TRIPOS>ATOM
      1 O         138.8564  138.9771  157.5843 O.2     1  UNL1       -0.2666
      2 C         138.8944  140.0164  158.6652 C.2     1  UNL1        0.2834
      3 C         138.9102  139.5998  160.1061 C.ar    1  UNL1        0.1985
      4 N         138.8949  138.2504  160.7610 N.ar    1  UNL1       -0.2227
      5 C         138.9234  138.4558  162.2467 C.ar    1  UNL1        0.0988
      6 C         138.9237  137.4892  163.3937 C.ar    1  UNL1        0.0206
      7 C         138.9569  137.9990  164.8040 C.ar    1  UNL1        0.0016
      8 C         138.9899  139.4753  165.0672 C.ar    1  UNL1        0.0015
      9 C         138.9896  140.4419  163.9202 C.ar    1  UNL1        0.0174
     10 C         138.9564  139.9321  162.5099 C.ar    1  UNL1        0.0790
     11 N         138.9482  140.6391  161.1870 N.ar    1  UNL1       -0.3060
     12 C         138.9705  142.0951  160.8270 C.3     1  UNL1        0.1291
     13 C         138.9547  142.5117  159.3861 C.3     1  UNL1        0.1183
     14 N         138.9167  141.4724  158.3052 N.am    1  UNL1       -0.2716
     15 C         139.0226  141.9182  164.1835 C.ar    1  UNL1        0.0037
     16 C         137.7479  142.6599  164.4572 C.ar    1  UNL1        0.0002
     17 C         137.7808  144.1363  164.7204 C.ar    1  UNL1        0.0023
     18 C         139.0885  144.8709  164.7100 C.ar    1  UNL1        0.0296
     19 C         140.3632  144.1293  164.4364 C.ar    1  UNL1        0.1401
     20 F         141.6710  144.8639  164.4260 F       1  UNL1       -0.2042
     21 C         140.3303  142.6529  164.1731 C.ar    1  UNL1        0.0297
     22 C         138.9010  141.8890  156.8643 C.3     1  UNL1        0.0938
     23 C         137.6060  142.2618  156.2055 C.3     1  UNL1        0.0199
     24 C         136.7041  143.3012  155.6087 C.3     1  UNL1        0.0018
     25 C         136.2649  141.8679  155.6611 C.3     1  UNL1        0.0018
@<TRIPOS>BOND
     1     1     2    2
     2     2     3    1
     3     3     4   ar
     4     4     5   ar
     5     5     6   ar
     6     6     7   ar
     7     7     8   ar
     8     8     9   ar
     9     9    15    1
    10    15    16   ar
    11    16    17   ar
    12    17    18   ar
    13    18    19   ar
    14    19    20    1
    15    19    21   ar
    16     9    10   ar
    17    10    11   ar
    18    11    12    1
    19    12    13    1
    20    13    14    1
    21    14    22    1
    22    22    23    1
    23    23    24    1
    24    24    25    1
    25    14     2   am
    26    25    23    1
    27    11     3   ar
    28    10     5   ar
    29    21    15   ar
@<TRIPOS>MOLECULE
*****
 25 29 0 0 0
SMALL
GASTEIGER

@<TRIPOS>ATOM
      1 O         143.7693  138.1521  167.3190 O.2     1  UNL1       -0.2666
      2 C         142.8058  139.1711  166.7868 C.2     1  UNL1        0.2834
      3 C         142.3416  139.0924  165.3626 C.ar    1  UNL1        0.1985
      4 N         142.6586  138.1316  164.2552 N.ar    1  UNL1       -0.2227
      5 C         141.8911  138.5567  163.0386 C.ar    1  UNL1        0.0988
      6 C         141.8105  137.9878  161.6531 C.ar    1  UNL1        0.0206
      7 C         140.9386  138.6425  160.6230 C.ar    1  UNL1        0.0016
      8 C         140.1472  139.8661  160.9785 C.ar    1  UNL1        0.0015
      9 C         140.2277  140.4351  162.3640 C.ar    1  UNL1        0.0174
     10 C         141.0996  139.7804  163.3941 C.ar    1  UNL1        0.0790
     11 N         141.3781  140.1114  164.8304 N.ar    1  UNL1       -0.3060
     12 C         140.8788  141.2091  165.7224 C.3     1  UNL1        0.1291
     13 C         141.3430  141.2878  167.1466 C.3     1  UNL1        0.1183
     14 N         142.3065  140.2688  167.6788 N.am    1  UNL1       -0.2716
     15 C         139.4363  141.6587  162.7195 C.ar    1  UNL1        0.0037
     16 C         138.1054  141.5204  163.3974 C.ar    1  UNL1        0.0002
     17 C         137.3140  142.7440  163.7529 C.ar    1  UNL1        0.0023
     18 C         137.8535  144.1060  163.4305 C.ar    1  UNL1        0.0296
     19 C         139.1843  144.2443  162.7526 C.ar    1  UNL1        0.1401
     20 F         139.7239  145.6063  162.4301 F       1  UNL1       -0.2042
     21 C         139.9758  143.0207  162.3971 C.ar    1  UNL1        0.0297
     22 C         142.7707  140.3475  169.1030 C.3     1  UNL1        0.0938
     23 C         143.2189  141.6600  169.6743 C.3     1  UNL1        0.0199
     24 C         142.9019  142.9483  170.3741 C.3     1  UNL1        0.0018
     25 C         144.3125  142.6450  169.9641 C.3     1  UNL1        0.0018
@<TRIPOS>BOND
     1     1     2    2
     2     2     3    1
     3     3     4   ar
     4     4     5   ar
     5     5     6   ar
     6     6     7   ar
     7     7     8   ar
     8     8     9   ar
     9     9    15    1
    10    15    16   ar
    11    16    17   ar
    12    17    18   ar
    13    18    19   ar
    14    19    20    1
    15    19    21   ar
    16     9    10   ar
    17    10    11   ar
    18    11    12    1
    19    12    13    1
    20    13    14    1
    21    14    22    1
    22    22    23    1
    23    23    24    1
    24    24    25    1
    25    14     2   am
    26    25    23    1
    27    11     3   ar
    28    10     5   ar
    29    21    15   ar
@<TRIPOS>MOLECULE
*****
 25 29 0 0 0
SMALL
GASTEIGER

@<TRIPOS>ATOM
      1 O         138.0578  137.5107  162.4277 O.2     1  UNL1       -0.2666
      2 C         138.9743  138.6879  162.5830 C.2     1  UNL1        0.2834
      3 C         139.2493  139.2495  163.9465 C.ar    1  UNL1        0.1985
      4 N         138.7649  138.8561  165.3105 N.ar    1  UNL1       -0.2227
      5 C         139.3820  139.7902  166.3089 C.ar    1  UNL1        0.0988
      6 C         139.2673  139.8822  167.8016 C.ar    1  UNL1        0.0206
      7 C         140.0186  140.9449  168.5474 C.ar    1  UNL1        0.0016
      8 C         140.8845  141.9157  167.8004 C.ar    1  UNL1        0.0015
      9 C         140.9991  141.8236  166.3076 C.ar    1  UNL1        0.0174
     10 C         140.2479  140.7609  165.5619 C.ar    1  UNL1        0.0790
     11 N         140.1659  140.4267  164.1019 N.ar    1  UNL1       -0.3060
     12 C         140.8074  141.0423  162.8938 C.3     1  UNL1        0.1291
     13 C         140.5323  140.4807  161.5303 C.3     1  UNL1        0.1183
     14 N         139.6158  139.3035  161.3750 N.am    1  UNL1       -0.2716
     15 C         141.8650  142.7943  165.5606 C.ar    1  UNL1        0.0037
     16 C         143.3585  142.6979  165.6605 C.ar    1  UNL1        0.0002
     17 C         144.2244  143.6686  164.9135 C.ar    1  UNL1        0.0023
     18 C         143.5967  144.7357  164.0667 C.ar    1  UNL1        0.0296
     19 C         142.1032  144.8321  163.9668 C.ar    1  UNL1        0.1401
     20 F         141.4754  145.8993  163.1198 F       1  UNL1       -0.2042
     21 C         141.2373  143.8614  164.7138 C.ar    1  UNL1        0.0297
     22 C         139.3408  138.7419  160.0115 C.3     1  UNL1        0.0938
     23 C         139.0288  139.6633  158.8698 C.3     1  UNL1        0.0199
     24 C         138.1011  140.6324  158.1986 C.3     1  UNL1        0.0018
     25 C         139.4162  140.2903  157.5633 C.3     1  UNL1        0.0018
@<TRIPOS>BOND
     1     1     2    2
     2     2     3    1
     3     3     4   ar
     4     4     5   ar
     5     5     6   ar
     6     6     7   ar
     7     7     8   ar
     8     8     9   ar
     9     9    15    1
    10    15    16   ar
    11    16    17   ar
    12    17    18   ar
    13    18    19   ar
    14    19    20    1
    15    19    21   ar
    16     9    10   ar
    17    10    11   ar
    18    11    12    1
    19    12    13    1
    20    13    14    1
    21    14    22    1
    22    22    23    1
    23    23    24    1
    24    24    25    1
    25    14     2   am
    26    25    23    1
    27    11     3   ar
    28    10     5   ar
    29    21    15   ar
@<TRIPOS>MOLECULE
*****
 25 29 0 0 0
SMALL
GASTEIGER

@<TRIPOS>ATOM
      1 O         140.1953  139.5238  169.1838 O.2     1  UNL1       -0.2666
      2 C         140.1205  140.5379  168.0811 C.2     1  UNL1        0.2834
      3 C         139.7223  140.1143  166.6983 C.ar    1  UNL1        0.1985
      4 N         139.3491  138.7790  166.1260 N.ar    1  UNL1       -0.2227
      5 C         139.0437  138.9678  164.6696 C.ar    1  UNL1        0.0988
      6 C         138.6215  138.0051  163.5996 C.ar    1  UNL1        0.0206
      7 C         138.3838  138.4945  162.2018 C.ar    1  UNL1        0.0016
      8 C         138.5682  139.9465  161.8739 C.ar    1  UNL1        0.0015
      9 C         138.9904  140.9092  162.9439 C.ar    1  UNL1        0.0174
     10 C         139.2281  140.4198  164.3418 C.ar    1  UNL1        0.0790
     11 N         139.6475  141.1284  165.5956 N.ar    1  UNL1       -0.3060
     12 C         139.9710  142.5661  165.8756 C.3     1  UNL1        0.1291
     13 C         140.3692  142.9896  167.2584 C.3     1  UNL1        0.1183
     14 N         140.4440  141.9755  168.3611 N.am    1  UNL1       -0.2716
     15 C         139.1748  142.3613  162.6161 C.ar    1  UNL1        0.0037
     16 C         138.0622  143.3347  162.8698 C.ar    1  UNL1        0.0002
     17 C         138.2466  144.7867  162.5420 C.ar    1  UNL1        0.0023
     18 C         139.5437  145.2654  161.9605 C.ar    1  UNL1        0.0296
     19 C         140.6564  144.2921  161.7068 C.ar    1  UNL1        0.1401
     20 F         141.9537  144.7707  161.1252 F       1  UNL1       -0.2042
     21 C         140.4720  142.8400  162.0346 C.ar    1  UNL1        0.0297
     22 C         140.8422  142.3991  169.7439 C.3     1  UNL1        0.0938
     23 C         142.2833  142.6705  170.0593 C.3     1  UNL1        0.0199
     24 C         143.3248  143.4392  170.8172 C.3     1  UNL1        0.0018
     25 C         143.7380  142.3719  169.8477 C.3     1  UNL1        0.0018
@<TRIPOS>BOND
     1     1     2    2
     2     2     3    1
     3     3     4   ar
     4     4     5   ar
     5     5     6   ar
     6     6     7   ar
     7     7     8   ar
     8     8     9   ar
     9     9    15    1
    10    15    16   ar
    11    16    17   ar
    12    17    18   ar
    13    18    19   ar
    14    19    20    1
    15    19    21   ar
    16     9    10   ar
    17    10    11   ar
    18    11    12    1
    19    12    13    1
    20    13    14    1
    21    14    22    1
    22    22    23    1
    23    23    24    1
    24    24    25    1
    25    14     2   am
    26    25    23    1
    27    11     3   ar
    28    10     5   ar
    29    21    15   ar
@<TRIPOS>MOLECULE
*****
 25 29 0 0 0
SMALL
GASTEIGER

@<TRIPOS>ATOM
      1 O         144.1452  137.7363  166.9692 O.2     1  UNL1       -0.2666
      2 C         143.3276  138.9175  166.5378 C.2     1  UNL1        0.2834
      3 C         143.3450  139.3584  165.1041 C.ar    1  UNL1        0.1985
      4 N         144.0657  138.8289  163.8999 N.ar    1  UNL1       -0.2227
      5 C         143.6935  139.6829  162.7242 C.ar    1  UNL1        0.0988
      6 C         144.0976  139.6344  161.2805 C.ar    1  UNL1        0.0206
      7 C         143.5508  140.6431  160.3144 C.ar    1  UNL1        0.0016
      8 C         142.5999  141.7004  160.7920 C.ar    1  UNL1        0.0015
      9 C         142.1959  141.7489  162.2357 C.ar    1  UNL1        0.0174
     10 C         142.7427  140.7402  163.2018 C.ar    1  UNL1        0.0790
     11 N         142.5273  140.5396  164.6727 N.ar    1  UNL1       -0.3060
     12 C         141.6922  141.2799  165.6749 C.3     1  UNL1        0.1291
     13 C         141.6748  140.8391  167.1086 C.3     1  UNL1        0.1183
     14 N         142.4925  139.6579  167.5400 N.am    1  UNL1       -0.2716
     15 C         141.2451  142.8062  162.7134 C.ar    1  UNL1        0.0037
     16 C         141.7743  144.0875  163.2861 C.ar    1  UNL1        0.0002
     17 C         140.8235  145.1447  163.7637 C.ar    1  UNL1        0.0023
     18 C         139.3434  144.9207  163.6686 C.ar    1  UNL1        0.0296
     19 C         138.8142  143.6394  163.0958 C.ar    1  UNL1        0.1401
     20 F         137.3340  143.4153  163.0006 F       1  UNL1       -0.2042
     21 C         139.7650  142.5821  162.6182 C.ar    1  UNL1        0.0297
     22 C         142.4751  139.2170  168.9737 C.3     1  UNL1        0.0938
     23 C         141.5877  139.9140  169.9619 C.3     1  UNL1        0.0199
     24 C         140.2589  140.0502  170.6444 C.3     1  UNL1        0.0018
     25 C         141.3794  140.9851  170.9912 C.3     1  UNL1        0.0018
@<TRIPOS>BOND
     1     1     2    2
     2     2     3    1
     3     3     4   ar
     4     4     5   ar
     5     5     6   ar
     6     6     7   ar
     7     7     8   ar
     8     8     9   ar
     9     9    15    1
    10    15    16   ar
    11    16    17   ar
    12    17    18   ar
    13    18    19   ar
    14    19    20    1
    15    19    21   ar
    16     9    10   ar
    17    10    11   ar
    18    11    12    1
    19    12    13    1
    20    13    14    1
    21    14    22    1
    22    22    23    1
    23    23    24    1
    24    24    25    1
    25    14     2   am
    26    25    23    1
    27    11     3   ar
    28    10     5   ar
    29    21    15   ar
