@<TRIPOS>MOLECULE
*****
 33 38 0 0 0
SMALL
GASTEIGER

@<TRIPOS>ATOM
      1 C         143.6123  134.8191  156.5355 C.ar    1  UNL1        0.1640
      2 N         142.9753  135.8321  157.4399 N.ar    1  UNL1       -0.2220
      3 C         143.1028  137.1783  156.7907 C.ar    1  UNL1        0.1344
      4 C         142.6595  138.5456  157.2198 C.ar    1  UNL1        0.1049
      5 C         142.9321  139.7319  156.3432 C.ar    1  UNL1        0.0392
      6 C         143.6480  139.5509  155.0375 C.ar    1  UNL1        0.0751
      7 N         144.0912  138.1836  154.6084 N.ar    1  UNL1       -0.3361
      8 C         143.8186  136.9973  155.4850 C.ar    1  UNL1        0.1615
      9 N         144.1336  135.5393  155.3273 N.ar    1  UNL1       -0.2081
     10 H         144.5611  138.0648  153.7515 H       1  UNL1        0.1675
     11 C         141.5192  128.7675  155.5465 C.3     1  UNL1        0.1305
     12 N         141.7836  130.2435  155.5857 N.ar    1  UNL1       -0.3240
     13 C         141.0228  131.2958  154.8347 C.ar    1  UNL1        0.0760
     14 C         141.6241  132.6290  155.1677 C.ar    1  UNL1        0.0202
     15 C         142.7567  132.4006  156.1245 C.ar    1  UNL1        0.0202
     16 C         143.7109  133.3448  156.7939 C.ar    1  UNL1        0.0373
     17 C         144.7636  132.8146  157.7215 C.ar    1  UNL1        0.0031
     18 C         144.8622  131.3404  157.9798 C.ar    1  UNL1        0.0016
     19 C         143.9079  130.3962  157.3105 C.ar    1  UNL1        0.0172
     20 C         142.8552  130.9264  156.3828 C.ar    1  UNL1        0.0601
     21 N         141.9437  138.7266  158.5255 N.ar    1  UNL1       -0.2268
     22 C         142.5354  139.2857  159.7853 C.ar    1  UNL1        0.0991
     23 C         141.4678  139.2849  160.8389 C.ar    1  UNL1        0.0339
     24 C         140.2163  138.7252  160.2304 C.ar    1  UNL1        0.1191
     25 N         140.5104  138.3802  158.8005 N.ar    1  UNL1       -0.1637
     26 C         141.6244  139.7603  162.2530 C.3     1  UNL1        0.1024
     27 N         142.9944  139.9735  162.8253 N.3     1  UNL1       -0.2667
     28 C         143.6732  139.0986  163.8371 C.3     1  UNL1        0.0750
     29 C         145.0246  139.6834  164.1233 C.3     1  UNL1        0.0480
     30 C         145.1809  140.9197  163.2884 C.3     1  UNL1        0.1278
     31 O         146.3813  141.8189  163.2606 O.3     1  UNL1       -0.3830
     32 C         143.9263  141.0990  162.4861 C.3     1  UNL1        0.1020
     33 H         147.0539  141.4793  163.8715 H       1  UNL1        0.2104
@<TRIPOS>BOND
     1    11    12    1
     2    12    13   ar
     3    13    14   ar
     4    14    15   ar
     5    15    16   ar
     6    16     1    1
     7     1     2   ar
     8     2     3   ar
     9     3     4   ar
    10     4    21    1
    11    21    22   ar
    12    22    23   ar
    13    23    26    1
    14    26    27    1
    15    27    28    1
    16    28    29    1
    17    29    30    1
    18    30    31    1
    19    30    32    1
    20    23    24   ar
    21    24    25   ar
    22     4     5   ar
    23     5     6   ar
    24     6     7   ar
    25     7     8   ar
    26     8     9   ar
    27    16    17   ar
    28    17    18   ar
    29    18    19   ar
    30    19    20   ar
    31    20    12   ar
    32    20    15   ar
    33     9     1   ar
    34     8     3    1
    35    25    21   ar
    36    32    27    1
    37    31    33    1
    38     7    10    1
@<TRIPOS>MOLECULE
*****
 33 38 0 0 0
SMALL
GASTEIGER

@<TRIPOS>ATOM
      1 C         142.7041  135.4296  156.4143 C.ar    1  UNL1        0.1640
      2 N         142.6186  136.0911  157.7578 N.ar    1  UNL1       -0.2220
      3 C         142.9140  137.5504  157.5757 C.ar    1  UNL1        0.1344
      4 C         142.9735  138.6913  158.5476 C.ar    1  UNL1        0.1049
      5 C         143.3012  140.0728  158.0634 C.ar    1  UNL1        0.0392
      6 C         143.5694  140.3131  156.6073 C.ar    1  UNL1        0.0751
      7 N         143.5099  139.1722  155.6354 N.ar    1  UNL1       -0.3361
      8 C         143.1822  137.7908  156.1195 C.ar    1  UNL1        0.1615
      9 N         143.0525  136.4801  155.4018 N.ar    1  UNL1       -0.2081
     10 H         143.6859  139.3300  154.6797 H       1  UNL1        0.1675
     11 C         144.3423  129.2129  157.2204 C.3     1  UNL1        0.1305
     12 N         144.1946  130.7056  157.2172 N.ar    1  UNL1       -0.3240
     13 C         145.0606  131.6789  157.9607 C.ar    1  UNL1        0.0760
     14 C         144.5562  133.0619  157.6729 C.ar    1  UNL1        0.0202
     15 C         143.3784  132.9433  156.7515 C.ar    1  UNL1        0.0202
     16 C         142.4806  133.9733  156.1327 C.ar    1  UNL1        0.0373
     17 C         141.3593  133.5470  155.2322 C.ar    1  UNL1        0.0031
     18 C         141.1358  132.0908  154.9506 C.ar    1  UNL1        0.0016
     19 C         142.0336  131.0608  155.5695 C.ar    1  UNL1        0.0172
     20 C         143.1549  131.4871  156.4699 C.ar    1  UNL1        0.0601
     21 N         142.7053  138.4509  160.0037 N.ar    1  UNL1       -0.2268
     22 C         141.3617  138.2062  160.6242 C.ar    1  UNL1        0.0991
     23 C         141.5598  138.0171  162.0989 C.ar    1  UNL1        0.0339
     24 C         143.0256  138.1450  162.3900 C.ar    1  UNL1        0.1191
     25 N         143.7337  138.4131  161.0951 N.ar    1  UNL1       -0.1637
     26 C         140.4811  137.7474  163.1059 C.3     1  UNL1        0.1024
     27 N         139.5616  138.8525  163.5341 N.3     1  UNL1       -0.2667
     28 C         139.6120  139.5843  164.8425 C.3     1  UNL1        0.0750
     29 C         138.5118  140.6038  164.8460 C.3     1  UNL1        0.0480
     30 C         137.7814  140.5022  163.5398 C.3     1  UNL1        0.1278
     31 O         136.6082  141.3366  163.1184 O.3     1  UNL1       -0.3830
     32 C         138.4302  139.4199  162.7289 C.3     1  UNL1        0.1020
     33 H         136.3860  141.9625  163.8253 H       1  UNL1        0.2104
@<TRIPOS>BOND
     1    11    12    1
     2    12    13   ar
     3    13    14   ar
     4    14    15   ar
     5    15    16   ar
     6    16     1    1
     7     1     2   ar
     8     2     3   ar
     9     3     4   ar
    10     4    21    1
    11    21    22   ar
    12    22    23   ar
    13    23    26    1
    14    26    27    1
    15    27    28    1
    16    28    29    1
    17    29    30    1
    18    30    31    1
    19    30    32    1
    20    23    24   ar
    21    24    25   ar
    22     4     5   ar
    23     5     6   ar
    24     6     7   ar
    25     7     8   ar
    26     8     9   ar
    27    16    17   ar
    28    17    18   ar
    29    18    19   ar
    30    19    20   ar
    31    20    12   ar
    32    20    15   ar
    33     9     1   ar
    34     8     3    1
    35    25    21   ar
    36    32    27    1
    37    31    33    1
    38     7    10    1
@<TRIPOS>MOLECULE
*****
 33 38 0 0 0
SMALL
GASTEIGER

@<TRIPOS>ATOM
      1 C         143.5666  134.5596  156.6326 C.ar    1  UNL1        0.1640
      2 N         142.8618  135.5202  157.5438 N.ar    1  UNL1       -0.2220
      3 C         142.9663  136.8906  156.9430 C.ar    1  UNL1        0.1344
      4 C         142.4603  138.2274  157.3981 C.ar    1  UNL1        0.1049
      5 C         142.7236  139.4504  156.5705 C.ar    1  UNL1        0.0392
      6 C         143.4929  139.3367  155.2879 C.ar    1  UNL1        0.0751
      7 N         143.9990  138.0000  154.8328 N.ar    1  UNL1       -0.3361
      8 C         143.7357  136.7770  155.6603 C.ar    1  UNL1        0.1615
      9 N         144.1067  135.3363  155.4685 N.ar    1  UNL1       -0.2081
     10 H         144.5039  137.9254  153.9909 H       1  UNL1        0.1675
     11 C         141.5905  128.4878  155.5330 C.3     1  UNL1        0.1305
     12 N         141.8210  129.9682  155.6058 N.ar    1  UNL1       -0.3240
     13 C         141.0156  131.0215  154.9044 C.ar    1  UNL1        0.0760
     14 C         141.5942  132.3594  155.2579 C.ar    1  UNL1        0.0202
     15 C         142.7573  132.1330  156.1779 C.ar    1  UNL1        0.0202
     16 C         143.7067  133.0817  156.8476 C.ar    1  UNL1        0.0373
     17 C         144.7964  132.5525  157.7323 C.ar    1  UNL1        0.0031
     18 C         144.9365  131.0746  157.9472 C.ar    1  UNL1        0.0016
     19 C         143.9870  130.1259  157.2776 C.ar    1  UNL1        0.0172
     20 C         142.8974  130.6551  156.3929 C.ar    1  UNL1        0.0601
     21 N         141.6909  138.3411  158.6807 N.ar    1  UNL1       -0.2268
     22 C         140.2166  138.5876  158.8056 C.ar    1  UNL1        0.0991
     23 C         139.8754  138.6271  160.2657 C.ar    1  UNL1        0.0339
     24 C         141.1387  138.4049  161.0432 C.ar    1  UNL1        0.1191
     25 N         142.2608  138.2282  160.0636 N.ar    1  UNL1       -0.1637
     26 C         138.5103  138.8497  160.8464 C.3     1  UNL1        0.1024
     27 N         138.2079  140.1189  161.5865 N.3     1  UNL1       -0.2667
     28 C         137.8488  140.2285  163.0387 C.3     1  UNL1        0.0750
     29 C         137.6305  141.6786  163.3541 C.3     1  UNL1        0.0480
     30 C         137.8548  142.4653  162.0967 C.3     1  UNL1        0.1278
     31 O         137.7421  143.9545  161.9565 O.3     1  UNL1       -0.3830
     32 C         138.2117  141.5013  161.0043 C.3     1  UNL1        0.1020
     33 H         137.4988  144.3423  162.8117 H       1  UNL1        0.2104
@<TRIPOS>BOND
     1    11    12    1
     2    12    13   ar
     3    13    14   ar
     4    14    15   ar
     5    15    16   ar
     6    16     1    1
     7     1     2   ar
     8     2     3   ar
     9     3     4   ar
    10     4    21    1
    11    21    22   ar
    12    22    23   ar
    13    23    26    1
    14    26    27    1
    15    27    28    1
    16    28    29    1
    17    29    30    1
    18    30    31    1
    19    30    32    1
    20    23    24   ar
    21    24    25   ar
    22     4     5   ar
    23     5     6   ar
    24     6     7   ar
    25     7     8   ar
    26     8     9   ar
    27    16    17   ar
    28    17    18   ar
    29    18    19   ar
    30    19    20   ar
    31    20    12   ar
    32    20    15   ar
    33     9     1   ar
    34     8     3    1
    35    25    21   ar
    36    32    27    1
    37    31    33    1
    38     7    10    1
@<TRIPOS>MOLECULE
*****
 33 38 0 0 0
SMALL
GASTEIGER

@<TRIPOS>ATOM
      1 C         142.9321  135.1670  156.1446 C.ar    1  UNL1        0.1640
      2 N         142.2801  136.0936  157.1275 N.ar    1  UNL1       -0.2220
      3 C         142.8942  137.4520  156.9615 C.ar    1  UNL1        0.1344
      4 C         142.6473  138.7571  157.6586 C.ar    1  UNL1        0.1049
      5 C         143.4320  139.9751  157.2701 C.ar    1  UNL1        0.0392
      6 C         144.4634  139.8880  156.1846 C.ar    1  UNL1        0.0751
      7 N         144.7103  138.5829  155.4875 N.ar    1  UNL1       -0.3361
      8 C         143.9257  137.3650  155.8759 C.ar    1  UNL1        0.1615
      9 N         143.9491  135.9527  155.3711 N.ar    1  UNL1       -0.2081
     10 H         145.3873  138.5258  154.7750 H       1  UNL1        0.1675
     11 C         144.1678  128.9383  157.4321 C.3     1  UNL1        0.1305
     12 N         144.1138  130.4329  157.3170 N.ar    1  UNL1       -0.3240
     13 C         145.0293  131.4036  158.0024 C.ar    1  UNL1        0.0760
     14 C         144.6161  132.7898  157.6054 C.ar    1  UNL1        0.0202
     15 C         143.4452  132.6758  156.6746 C.ar    1  UNL1        0.0202
     16 C         142.6216  133.7102  155.9664 C.ar    1  UNL1        0.0373
     17 C         141.4876  133.2881  155.0800 C.ar    1  UNL1        0.0031
     18 C         141.1772  131.8314  154.9018 C.ar    1  UNL1        0.0016
     19 C         142.0008  130.7970  155.6101 C.ar    1  UNL1        0.0172
     20 C         143.1348  131.2191  156.4965 C.ar    1  UNL1        0.0601
     21 N         141.6158  138.8442  158.7442 N.ar    1  UNL1       -0.2268
     22 C         140.2496  139.4499  158.6157 C.ar    1  UNL1        0.0991
     23 C         139.5589  139.3209  159.9409 C.ar    1  UNL1        0.0339
     24 C         140.4983  138.6355  160.8884 C.ar    1  UNL1        0.1191
     25 N         141.7695  138.3409  160.1488 N.ar    1  UNL1       -0.1637
     26 C         138.1722  139.7943  160.2622 C.3     1  UNL1        0.1024
     27 N         137.9670  140.8846  161.2717 N.3     1  UNL1       -0.2667
     28 C         137.6363  140.6925  162.7221 C.3     1  UNL1        0.0750
     29 C         137.5214  142.0477  163.3547 C.3     1  UNL1        0.0480
     30 C         137.7812  143.0774  162.2954 C.3     1  UNL1        0.1278
     31 O         137.7679  144.5648  162.4894 O.3     1  UNL1       -0.3830
     32 C         138.0566  142.3586  161.0079 C.3     1  UNL1        0.1020
     33 H         137.5633  144.7682  163.4155 H       1  UNL1        0.2104
@<TRIPOS>BOND
     1    11    12    1
     2    12    13   ar
     3    13    14   ar
     4    14    15   ar
     5    15    16   ar
     6    16     1    1
     7     1     2   ar
     8     2     3   ar
     9     3     4   ar
    10     4    21    1
    11    21    22   ar
    12    22    23   ar
    13    23    26    1
    14    26    27    1
    15    27    28    1
    16    28    29    1
    17    29    30    1
    18    30    31    1
    19    30    32    1
    20    23    24   ar
    21    24    25   ar
    22     4     5   ar
    23     5     6   ar
    24     6     7   ar
    25     7     8   ar
    26     8     9   ar
    27    16    17   ar
    28    17    18   ar
    29    18    19   ar
    30    19    20   ar
    31    20    12   ar
    32    20    15   ar
    33     9     1   ar
    34     8     3    1
    35    25    21   ar
    36    32    27    1
    37    31    33    1
    38     7    10    1
@<TRIPOS>MOLECULE
*****
 33 38 0 0 0
SMALL
GASTEIGER

@<TRIPOS>ATOM
      1 C         139.7505  145.7909  155.8831 C.ar    1  UNL1        0.1640
      2 N         139.9635  145.6881  157.3643 N.ar    1  UNL1       -0.2220
      3 C         139.7311  144.2623  157.7681 C.ar    1  UNL1        0.1344
      4 C         139.7981  143.5722  159.0982 C.ar    1  UNL1        0.1049
      5 C         139.5086  142.1037  159.1967 C.ar    1  UNL1        0.0392
      6 C         139.1520  141.3253  157.9650 C.ar    1  UNL1        0.0751
      7 N         139.0850  142.0154  156.6349 N.ar    1  UNL1       -0.3361
      8 C         139.3745  143.4839  156.5364 C.ar    1  UNL1        0.1615
      9 N         139.3865  144.4287  155.3714 N.ar    1  UNL1       -0.2081
     10 H         138.8510  141.5046  155.8265 H       1  UNL1        0.1675
     11 C         138.6250  152.1102  154.9989 C.3     1  UNL1        0.1305
     12 N         138.7366  150.6875  155.4611 N.ar    1  UNL1       -0.3240
     13 C         138.1880  150.1308  156.7414 C.ar    1  UNL1        0.0760
     14 C         138.5288  148.6710  156.7957 C.ar    1  UNL1        0.0202
     15 C         139.2880  148.3256  155.5489 C.ar    1  UNL1        0.0202
     16 C         139.8790  147.0372  155.0582 C.ar    1  UNL1        0.0373
     17 C         140.5984  146.9951  153.7427 C.ar    1  UNL1        0.0031
     18 C         140.7268  148.2414  152.9179 C.ar    1  UNL1        0.0016
     19 C         140.1358  149.5298  153.4086 C.ar    1  UNL1        0.0172
     20 C         139.4164  149.5719  154.7242 C.ar    1  UNL1        0.0601
     21 N         140.1547  144.3506  160.3299 N.ar    1  UNL1       -0.2268
     22 C         141.2795  144.0420  161.2731 C.ar    1  UNL1        0.0991
     23 C         141.2689  145.0749  162.3607 C.ar    1  UNL1        0.0339
     24 C         140.1377  146.0218  162.0897 C.ar    1  UNL1        0.1191
     25 N         139.4490  145.5742  160.8346 N.ar    1  UNL1       -0.1637
     26 C         142.2224  145.1479  163.5165 C.3     1  UNL1        0.1024
     27 N         143.1733  144.0175  163.7768 N.3     1  UNL1       -0.2667
     28 C         143.0507  142.9958  164.8682 C.3     1  UNL1        0.0750
     29 C         144.2155  142.0571  164.7574 C.3     1  UNL1        0.0480
     30 C         145.0580  142.4987  163.5975 C.3     1  UNL1        0.1278
     31 O         146.3225  141.8437  163.1264 O.3     1  UNL1       -0.3830
     32 C         144.4139  143.7103  162.9915 C.3     1  UNL1        0.1020
     33 H         146.5203  141.0796  163.6903 H       1  UNL1        0.2104
@<TRIPOS>BOND
     1    11    12    1
     2    12    13   ar
     3    13    14   ar
     4    14    15   ar
     5    15    16   ar
     6    16     1    1
     7     1     2   ar
     8     2     3   ar
     9     3     4   ar
    10     4    21    1
    11    21    22   ar
    12    22    23   ar
    13    23    26    1
    14    26    27    1
    15    27    28    1
    16    28    29    1
    17    29    30    1
    18    30    31    1
    19    30    32    1
    20    23    24   ar
    21    24    25   ar
    22     4     5   ar
    23     5     6   ar
    24     6     7   ar
    25     7     8   ar
    26     8     9   ar
    27    16    17   ar
    28    17    18   ar
    29    18    19   ar
    30    19    20   ar
    31    20    12   ar
    32    20    15   ar
    33     9     1   ar
    34     8     3    1
    35    25    21   ar
    36    32    27    1
    37    31    33    1
    38     7    10    1
@<TRIPOS>MOLECULE
*****
 33 38 0 0 0
SMALL
GASTEIGER

@<TRIPOS>ATOM
      1 C         143.2458  136.1270  156.1642 C.ar    1  UNL1        0.1640
      2 N         142.5187  136.6097  157.3842 N.ar    1  UNL1       -0.2220
      3 C         142.9083  138.0387  157.6209 C.ar    1  UNL1        0.1344
      4 C         142.5067  139.0270  158.6754 C.ar    1  UNL1        0.1049
      5 C         143.0731  140.4159  158.6562 C.ar    1  UNL1        0.0392
      6 C         144.0409  140.8165  157.5825 C.ar    1  UNL1        0.0751
      7 N         144.4424  139.8282  156.5279 N.ar    1  UNL1       -0.3361
      8 C         143.8761  138.4393  156.5471 C.ar    1  UNL1        0.1615
      9 N         144.0847  137.2578  155.6469 N.ar    1  UNL1       -0.2081
     10 H         145.0776  140.0911  155.8232 H       1  UNL1        0.1675
     11 C         144.4291  129.7625  156.4359 C.3     1  UNL1        0.1305
     12 N         144.2956  131.2428  156.6382 N.ar    1  UNL1       -0.3240
     13 C         144.7985  132.0203  157.8183 C.ar    1  UNL1        0.0760
     14 C         144.4495  133.4635  157.6054 C.ar    1  UNL1        0.0202
     15 C         143.7308  133.5779  156.2937 C.ar    1  UNL1        0.0202
     16 C         143.1507  134.7545  155.5664 C.ar    1  UNL1        0.0373
     17 C         142.4755  134.5587  154.2414 C.ar    1  UNL1        0.0031
     18 C         142.3805  133.1863  153.6436 C.ar    1  UNL1        0.0016
     19 C         142.9606  132.0097  154.3709 C.ar    1  UNL1        0.0172
     20 C         143.6357  132.2054  155.6960 C.ar    1  UNL1        0.0601
     21 N         141.5390  138.6265  159.7491 N.ar    1  UNL1       -0.2268
     22 C         141.8962  138.1715  161.1331 C.ar    1  UNL1        0.0991
     23 C         140.6220  137.8744  161.8666 C.ar    1  UNL1        0.0339
     24 C         139.4773  138.1458  160.9361 C.ar    1  UNL1        0.1191
     25 N         140.0440  138.6107  159.6274 N.ar    1  UNL1       -0.1637
     26 C         140.5118  137.3908  163.2823 C.3     1  UNL1        0.1024
     27 N         139.6415  138.1239  164.2597 N.3     1  UNL1       -0.2667
     28 C         139.4558  139.6105  164.3325 C.3     1  UNL1        0.0750
     29 C         138.5036  139.9043  165.4537 C.3     1  UNL1        0.0480
     30 C         138.1008  138.5992  166.0738 C.3     1  UNL1        0.1278
     31 O         137.1599  138.4251  167.2290 O.3     1  UNL1       -0.3830
     32 C         138.8041  137.4988  165.3359 C.3     1  UNL1        0.1020
     33 H         136.8439  139.2940  167.5224 H       1  UNL1        0.2104
@<TRIPOS>BOND
     1    11    12    1
     2    12    13   ar
     3    13    14   ar
     4    14    15   ar
     5    15    16   ar
     6    16     1    1
     7     1     2   ar
     8     2     3   ar
     9     3     4   ar
    10     4    21    1
    11    21    22   ar
    12    22    23   ar
    13    23    26    1
    14    26    27    1
    15    27    28    1
    16    28    29    1
    17    29    30    1
    18    30    31    1
    19    30    32    1
    20    23    24   ar
    21    24    25   ar
    22     4     5   ar
    23     5     6   ar
    24     6     7   ar
    25     7     8   ar
    26     8     9   ar
    27    16    17   ar
    28    17    18   ar
    29    18    19   ar
    30    19    20   ar
    31    20    12   ar
    32    20    15   ar
    33     9     1   ar
    34     8     3    1
    35    25    21   ar
    36    32    27    1
    37    31    33    1
    38     7    10    1
@<TRIPOS>MOLECULE
*****
 33 38 0 0 0
SMALL
GASTEIGER

@<TRIPOS>ATOM
      1 C         139.4512  142.3874  164.3083 C.ar    1  UNL1        0.1640
      2 N         140.5371  142.3638  163.2738 N.ar    1  UNL1       -0.2220
      3 C         140.4016  143.5974  162.4314 C.ar    1  UNL1        0.1344
      4 C         141.1922  144.1065  161.2627 C.ar    1  UNL1        0.1049
      5 C         140.8131  145.4018  160.6079 C.ar    1  UNL1        0.0392
      6 C         139.6434  146.1878  161.1217 C.ar    1  UNL1        0.0751
      7 N         138.8528  145.6786  162.2903 N.ar    1  UNL1       -0.3361
      8 C         139.2319  144.3835  162.9452 C.ar    1  UNL1        0.1615
      9 N         138.6445  143.6356  164.1052 N.ar    1  UNL1       -0.2081
     10 H         138.0851  146.1945  162.6276 H       1  UNL1        0.1675
     11 C         140.5219  140.0209  170.2442 C.3     1  UNL1        0.1305
     12 N         140.4624  140.7862  168.9555 N.ar    1  UNL1       -0.3240
     13 C         141.1976  142.0576  168.6504 C.ar    1  UNL1        0.0760
     14 C         140.8468  142.4718  167.2521 C.ar    1  UNL1        0.0202
     15 C         139.8948  141.4563  166.6929 C.ar    1  UNL1        0.0202
     16 C         139.2136  141.3456  165.3611 C.ar    1  UNL1        0.0373
     17 C         138.2948  140.1933  165.0822 C.ar    1  UNL1        0.0031
     18 C         138.0572  139.1516  166.1350 C.ar    1  UNL1        0.0016
     19 C         138.7384  139.2623  167.4667 C.ar    1  UNL1        0.0172
     20 C         139.6572  140.4146  167.7457 C.ar    1  UNL1        0.0601
     21 N         142.3619  143.3205  160.7489 N.ar    1  UNL1       -0.2268
     22 C         142.3292  142.3187  159.6329 C.ar    1  UNL1        0.0991
     23 C         143.7167  141.7774  159.4552 C.ar    1  UNL1        0.0339
     24 C         144.6070  142.4446  160.4613 C.ar    1  UNL1        0.1191
     25 N         143.7696  143.3983  161.2608 N.ar    1  UNL1       -0.1637
     26 C         144.1397  140.7493  158.4481 C.3     1  UNL1        0.1024
     27 N         144.9806  141.1521  157.2731 N.3     1  UNL1       -0.2667
     28 C         145.2960  140.2985  156.0807 C.3     1  UNL1        0.0750
     29 C         146.1641  141.0980  155.1549 C.3     1  UNL1        0.0480
     30 C         146.3853  142.4458  155.7751 C.3     1  UNL1        0.1278
     31 O         147.1956  143.5638  155.1890 O.3     1  UNL1       -0.3830
     32 C         145.6538  142.4792  157.0842 C.3     1  UNL1        0.1020
     33 H         147.5625  143.2843  154.3357 H       1  UNL1        0.2104
@<TRIPOS>BOND
     1    11    12    1
     2    12    13   ar
     3    13    14   ar
     4    14    15   ar
     5    15    16   ar
     6    16     1    1
     7     1     2   ar
     8     2     3   ar
     9     3     4   ar
    10     4    21    1
    11    21    22   ar
    12    22    23   ar
    13    23    26    1
    14    26    27    1
    15    27    28    1
    16    28    29    1
    17    29    30    1
    18    30    31    1
    19    30    32    1
    20    23    24   ar
    21    24    25   ar
    22     4     5   ar
    23     5     6   ar
    24     6     7   ar
    25     7     8   ar
    26     8     9   ar
    27    16    17   ar
    28    17    18   ar
    29    18    19   ar
    30    19    20   ar
    31    20    12   ar
    32    20    15   ar
    33     9     1   ar
    34     8     3    1
    35    25    21   ar
    36    32    27    1
    37    31    33    1
    38     7    10    1
@<TRIPOS>MOLECULE
*****
 33 38 0 0 0
SMALL
GASTEIGER

@<TRIPOS>ATOM
      1 C         143.3906  135.0023  156.8701 C.ar    1  UNL1        0.1640
      2 N         142.6406  135.8203  157.8793 N.ar    1  UNL1       -0.2220
      3 C         142.7091  137.2572  157.4543 C.ar    1  UNL1        0.1344
      4 C         142.1524  138.5110  158.0611 C.ar    1  UNL1        0.1049
      5 C         142.3879  139.8348  157.3961 C.ar    1  UNL1        0.0392
      6 C         143.1801  139.9048  156.1243 C.ar    1  UNL1        0.0751
      7 N         143.7368  138.6510  155.5175 N.ar    1  UNL1       -0.3361
      8 C         143.5013  137.3273  156.1825 C.ar    1  UNL1        0.1615
      9 N         143.9225  135.9336  155.8215 N.ar    1  UNL1       -0.2081
     10 H         144.2568  138.6970  154.6828 H       1  UNL1        0.1675
     11 C         141.5522  129.0481  155.0957 C.3     1  UNL1        0.1305
     12 N         141.7444  130.5155  155.3400 N.ar    1  UNL1       -0.3240
     13 C         140.8933  131.6202  154.7874 C.ar    1  UNL1        0.0760
     14 C         141.4443  132.9233  155.2857 C.ar    1  UNL1        0.0202
     15 C         142.6359  132.6239  156.1463 C.ar    1  UNL1        0.0202
     16 C         143.5760  133.5141  156.9037 C.ar    1  UNL1        0.0373
     17 C         144.7016  132.9163  157.6947 C.ar    1  UNL1        0.0031
     18 C         144.8870  131.4282  157.7282 C.ar    1  UNL1        0.0016
     19 C         143.9469  130.5380  156.9708 C.ar    1  UNL1        0.0172
     20 C         142.8213  131.1358  156.1799 C.ar    1  UNL1        0.0601
     21 N         141.3601  138.4410  159.3329 N.ar    1  UNL1       -0.2268
     22 C         141.8891  138.0491  160.6808 C.ar    1  UNL1        0.0991
     23 C         140.7557  138.1166  161.6609 C.ar    1  UNL1        0.0339
     24 C         139.5263  138.5500  160.9190 C.ar    1  UNL1        0.1191
     25 N         139.8999  138.7506  159.4801 N.ar    1  UNL1       -0.1637
     26 C         140.8374  137.8051  163.1260 C.3     1  UNL1        0.1024
     27 N         139.8716  138.4392  164.0826 N.3     1  UNL1       -0.2667
     28 C         139.5541  139.9023  164.1747 C.3     1  UNL1        0.0750
     29 C         138.5400  140.0889  165.2641 C.3     1  UNL1        0.0480
     30 C         138.2306  138.7411  165.8452 C.3     1  UNL1        0.1278
     31 O         137.2673  138.4619  166.9607 O.3     1  UNL1       -0.3830
     32 C         139.0536  137.7215  165.1150 C.3     1  UNL1        0.1020
     33 H         136.8662  139.2938  167.2573 H       1  UNL1        0.2104
@<TRIPOS>BOND
     1    11    12    1
     2    12    13   ar
     3    13    14   ar
     4    14    15   ar
     5    15    16   ar
     6    16     1    1
     7     1     2   ar
     8     2     3   ar
     9     3     4   ar
    10     4    21    1
    11    21    22   ar
    12    22    23   ar
    13    23    26    1
    14    26    27    1
    15    27    28    1
    16    28    29    1
    17    29    30    1
    18    30    31    1
    19    30    32    1
    20    23    24   ar
    21    24    25   ar
    22     4     5   ar
    23     5     6   ar
    24     6     7   ar
    25     7     8   ar
    26     8     9   ar
    27    16    17   ar
    28    17    18   ar
    29    18    19   ar
    30    19    20   ar
    31    20    12   ar
    32    20    15   ar
    33     9     1   ar
    34     8     3    1
    35    25    21   ar
    36    32    27    1
    37    31    33    1
    38     7    10    1
@<TRIPOS>MOLECULE
*****
 33 38 0 0 0
SMALL
GASTEIGER

@<TRIPOS>ATOM
      1 C         139.6871  139.3505  160.1811 C.ar    1  UNL1        0.1640
      2 N         139.0527  139.1555  158.8360 N.ar    1  UNL1       -0.2220
      3 C         140.0885  138.5846  157.9134 C.ar    1  UNL1        0.1344
      4 C         140.0358  138.1880  156.4677 C.ar    1  UNL1        0.1049
      5 C         141.2577  137.6336  155.7970 C.ar    1  UNL1        0.0392
      6 C         142.5322  137.4759  156.5720 C.ar    1  UNL1        0.0751
      7 N         142.5849  137.8725  158.0177 N.ar    1  UNL1       -0.3361
      8 C         141.3631  138.4268  158.6884 C.ar    1  UNL1        0.1615
      9 N         141.1150  138.9002  160.0899 N.ar    1  UNL1       -0.2081
     10 H         143.4214  137.7689  158.5263 H       1  UNL1        0.1675
     11 C         138.0071  138.8180  166.4161 C.3     1  UNL1        0.1305
     12 N         138.5243  138.6733  165.0156 N.ar    1  UNL1       -0.3240
     13 C         139.3076  137.5112  164.4806 C.ar    1  UNL1        0.0760
     14 C         139.6164  137.7850  163.0385 C.ar    1  UNL1        0.0202
     15 C         139.0240  139.1163  162.6823 C.ar    1  UNL1        0.0202
     16 C         139.0121  139.8995  161.4031 C.ar    1  UNL1        0.0373
     17 C         138.3251  141.2318  161.3457 C.ar    1  UNL1        0.0031
     18 C         137.6502  141.7807  162.5676 C.ar    1  UNL1        0.0016
     19 C         137.6622  140.9975  163.8468 C.ar    1  UNL1        0.0172
     20 C         138.3491  139.6653  163.9042 C.ar    1  UNL1        0.0601
     21 N         138.7612  138.3457  155.6927 N.ar    1  UNL1       -0.2268
     22 C         138.0534  139.6384  155.4134 C.ar    1  UNL1        0.0991
     23 C         136.8255  139.3301  154.6090 C.ar    1  UNL1        0.0339
     24 C         136.7744  137.8469  154.3912 C.ar    1  UNL1        0.1191
     25 N         137.9707  137.2385  155.0610 N.ar    1  UNL1       -0.1637
     26 C         135.8244  140.3296  154.1101 C.3     1  UNL1        0.1024
     27 N         134.5389  140.5391  154.8543 N.3     1  UNL1       -0.2667
     28 C         133.3964  141.4054  154.4139 C.3     1  UNL1        0.0750
     29 C         132.3217  141.3209  155.4569 C.3     1  UNL1        0.0480
     30 C         132.8002  140.4023  156.5420 C.3     1  UNL1        0.1278
     31 O         132.0414  140.0320  157.7819 O.3     1  UNL1       -0.3830
     32 C         134.1705  139.9191  156.1696 C.3     1  UNL1        0.1020
     33 H         131.1812  140.4803  157.7806 H       1  UNL1        0.2104
@<TRIPOS>BOND
     1    11    12    1
     2    12    13   ar
     3    13    14   ar
     4    14    15   ar
     5    15    16   ar
     6    16     1    1
     7     1     2   ar
     8     2     3   ar
     9     3     4   ar
    10     4    21    1
    11    21    22   ar
    12    22    23   ar
    13    23    26    1
    14    26    27    1
    15    27    28    1
    16    28    29    1
    17    29    30    1
    18    30    31    1
    19    30    32    1
    20    23    24   ar
    21    24    25   ar
    22     4     5   ar
    23     5     6   ar
    24     6     7   ar
    25     7     8   ar
    26     8     9   ar
    27    16    17   ar
    28    17    18   ar
    29    18    19   ar
    30    19    20   ar
    31    20    12   ar
    32    20    15   ar
    33     9     1   ar
    34     8     3    1
    35    25    21   ar
    36    32    27    1
    37    31    33    1
    38     7    10    1
