@<TRIPOS>MOLECULE
*****
 26 29 0 0 0
SMALL
GASTEIGER

@<TRIPOS>ATOM
      1 C         138.6188  139.3049  163.6285 C.ar    1  UNL1       -0.0221
      2 C         138.5223  138.1174  164.5397 C.ar    1  UNL1       -0.0030
      3 C         138.8958  138.2498  165.9864 C.ar    1  UNL1        0.0143
      4 C         139.3657  139.5697  166.5219 C.ar    1  UNL1        0.0497
      5 C         139.4622  140.7574  165.6107 C.ar    1  UNL1        0.0304
      6 C         139.0888  140.6249  164.1640 C.ar    1  UNL1       -0.0015
      7 C         139.9031  142.1535  165.9373 C.2     1  UNL1        0.0783
      8 N         140.3564  142.7067  167.2558 N.2     1  UNL1       -0.2444
      9 C         140.4807  142.0006  168.5734 C.ar    1  UNL1        0.0946
     10 C         140.9735  142.9255  169.6465 C.ar    1  UNL1        0.0204
     11 C         141.1681  142.4167  171.0440 C.ar    1  UNL1        0.0016
     12 C         140.8699  140.9829  171.3684 C.ar    1  UNL1        0.0014
     13 C         140.3771  140.0579  170.2953 C.ar    1  UNL1        0.0161
     14 C         140.1825  140.5668  168.8978 C.ar    1  UNL1        0.0662
     15 N         139.6863  139.4850  167.9848 N.pl3   1  UNL1       -0.3113
     16 H         139.5534  138.6026  168.4007 H       1  UNL1        0.1523
     17 C         139.8888  143.1246  164.7943 C.2     1  UNL1       -0.0061
     18 C         141.1308  143.3461  163.9827 C.2     1  UNL1       -0.0132
     19 C         141.1164  144.3173  162.8396 C.3     1  UNL1        0.0796
     20 C         142.3583  144.5388  162.0282 C.3     1  UNL1        0.0222
     21 N         139.8602  145.0670  162.5081 N.3     1  UNL1       -0.2688
     22 C         139.8460  146.0382  161.3651 C.3     1  UNL1        0.0899
     23 C         138.6183  144.8456  163.3197 C.3     1  UNL1        0.0771
     24 C         138.6326  143.8743  164.4627 C.3     1  UNL1        0.0449
     25 C         138.9379  138.1605  161.3180 C.3     1  UNL1        0.0050
     26 C         138.2453  139.1725  162.1818 C.3     1  UNL1        0.0264
@<TRIPOS>BOND
     1    25    26    1
     2    26     1    1
     3     1     2   ar
     4     2     3   ar
     5     3     4   ar
     6     4     5   ar
     7     5     6   ar
     8     5     7    1
     9     7    17    1
    10    17    18    2
    11    18    19    1
    12    19    20    1
    13    19    21    1
    14    21    22    1
    15    21    23    1
    16    23    24    1
    17     7     8    2
    18     8     9    1
    19     9    10   ar
    20    10    11   ar
    21    11    12   ar
    22    12    13   ar
    23    13    14   ar
    24    14    15    1
    25     6     1   ar
    26    24    17    1
    27    14     9   ar
    28    15     4    1
    29    15    16    1
@<TRIPOS>MOLECULE
*****
 26 29 0 0 0
SMALL
GASTEIGER

@<TRIPOS>ATOM
      1 C         143.3179  140.1868  163.2174 C.ar    1  UNL1       -0.0221
      2 C         143.9056  139.0489  163.9982 C.ar    1  UNL1       -0.0030
      3 C         143.7069  138.9767  165.4833 C.ar    1  UNL1        0.0143
      4 C         142.9205  140.0424  166.1874 C.ar    1  UNL1        0.0497
      5 C         142.3327  141.1803  165.4066 C.ar    1  UNL1        0.0304
      6 C         142.5314  141.2525  163.9215 C.ar    1  UNL1       -0.0015
      7 C         141.5216  142.3383  165.9078 C.2     1  UNL1        0.0783
      8 N         141.0979  142.6443  167.3138 N.2     1  UNL1       -0.2444
      9 C         141.3807  141.8680  168.5658 C.ar    1  UNL1        0.0946
     10 C         140.7696  142.5250  169.7678 C.ar    1  UNL1        0.0204
     11 C         140.9348  141.9080  171.1250 C.ar    1  UNL1        0.0016
     12 C         141.7111  140.6339  171.2801 C.ar    1  UNL1        0.0014
     13 C         142.3222  139.9768  170.0781 C.ar    1  UNL1        0.0161
     14 C         142.1570  140.5939  168.7210 C.ar    1  UNL1        0.0662
     15 N         142.8422  139.7815  167.6625 N.pl3   1  UNL1       -0.3113
     16 H         143.3013  138.9696  167.9776 H       1  UNL1        0.1523
     17 C         141.0752  143.3200  164.8653 C.2     1  UNL1       -0.0061
     18 C         139.6485  143.3252  164.4021 C.2     1  UNL1       -0.0132
     19 C         139.2021  144.3070  163.3595 C.3     1  UNL1        0.0796
     20 C         137.7755  144.3122  162.8963 C.3     1  UNL1        0.0222
     21 N         140.1823  145.2834  162.7802 N.3     1  UNL1       -0.2688
     22 C         139.7359  146.2651  161.7377 C.3     1  UNL1        0.0899
     23 C         141.6090  145.2782  163.2434 C.3     1  UNL1        0.0771
     24 C         142.0554  144.2965  164.2860 C.3     1  UNL1        0.0449
     25 C         143.9761  139.0471  160.9774 C.3     1  UNL1        0.0050
     26 C         143.5165  140.2590  161.7324 C.3     1  UNL1        0.0264
@<TRIPOS>BOND
     1    25    26    1
     2    26     1    1
     3     1     2   ar
     4     2     3   ar
     5     3     4   ar
     6     4     5   ar
     7     5     6   ar
     8     5     7    1
     9     7    17    1
    10    17    18    2
    11    18    19    1
    12    19    20    1
    13    19    21    1
    14    21    22    1
    15    21    23    1
    16    23    24    1
    17     7     8    2
    18     8     9    1
    19     9    10   ar
    20    10    11   ar
    21    11    12   ar
    22    12    13   ar
    23    13    14   ar
    24    14    15    1
    25     6     1   ar
    26    24    17    1
    27    14     9   ar
    28    15     4    1
    29    15    16    1
@<TRIPOS>MOLECULE
*****
 26 29 0 0 0
SMALL
GASTEIGER

@<TRIPOS>ATOM
      1 C         138.9748  138.0005  165.1712 C.ar    1  UNL1       -0.0221
      2 C         138.7990  137.6321  163.7279 C.ar    1  UNL1       -0.0030
      3 C         139.6738  138.2576  162.6822 C.ar    1  UNL1        0.0143
      4 C         140.7244  139.2516  163.0799 C.ar    1  UNL1        0.0497
      5 C         140.9002  139.6201  164.5233 C.ar    1  UNL1        0.0304
      6 C         140.0254  138.9945  165.5690 C.ar    1  UNL1       -0.0015
      7 C         141.8790  140.5809  165.1308 C.2     1  UNL1        0.0783
      8 N         142.9236  141.4105  164.4449 N.2     1  UNL1       -0.2444
      9 C         143.2475  141.4842  162.9821 C.ar    1  UNL1        0.0946
     10 C         144.3692  142.4442  162.7169 C.ar    1  UNL1        0.0204
     11 C         144.8501  142.6665  161.3137 C.ar    1  UNL1        0.0016
     12 C         144.2094  141.9288  160.1755 C.ar    1  UNL1        0.0014
     13 C         143.0878  140.9689  160.4407 C.ar    1  UNL1        0.0161
     14 C         142.6068  140.7466  161.8440 C.ar    1  UNL1        0.0662
     15 N         141.4839  139.7530  161.8876 N.pl3   1  UNL1       -0.3113
     16 H         141.2091  139.3807  161.0186 H       1  UNL1        0.1523
     17 C         141.8030  140.7320  166.6212 C.2     1  UNL1       -0.0061
     18 C         141.1145  141.9226  167.2202 C.2     1  UNL1       -0.0132
     19 C         141.0386  142.0737  168.7106 C.3     1  UNL1        0.0796
     20 C         140.3502  143.2641  169.3096 C.3     1  UNL1        0.0222
     21 N         141.6510  141.0343  169.6021 N.3     1  UNL1       -0.2688
     22 C         141.5751  141.1855  171.0924 C.3     1  UNL1        0.0899
     23 C         142.3395  139.8438  169.0031 C.3     1  UNL1        0.0771
     24 C         142.4154  139.6927  167.5126 C.3     1  UNL1        0.0449
     25 C         137.3649  138.2414  167.1961 C.3     1  UNL1        0.0050
     26 C         138.1000  137.3750  166.2169 C.3     1  UNL1        0.0264
@<TRIPOS>BOND
     1    25    26    1
     2    26     1    1
     3     1     2   ar
     4     2     3   ar
     5     3     4   ar
     6     4     5   ar
     7     5     6   ar
     8     5     7    1
     9     7    17    1
    10    17    18    2
    11    18    19    1
    12    19    20    1
    13    19    21    1
    14    21    22    1
    15    21    23    1
    16    23    24    1
    17     7     8    2
    18     8     9    1
    19     9    10   ar
    20    10    11   ar
    21    11    12   ar
    22    12    13   ar
    23    13    14   ar
    24    14    15    1
    25     6     1   ar
    26    24    17    1
    27    14     9   ar
    28    15     4    1
    29    15    16    1
@<TRIPOS>MOLECULE
*****
 26 29 0 0 0
SMALL
GASTEIGER

@<TRIPOS>ATOM
      1 C         144.1257  139.4580  164.7325 C.ar    1  UNL1       -0.0221
      2 C         144.4206  139.4332  163.2620 C.ar    1  UNL1       -0.0030
      3 C         143.8226  140.4714  162.3595 C.ar    1  UNL1        0.0143
      4 C         142.9298  141.5345  162.9274 C.ar    1  UNL1        0.0497
      5 C         142.6349  141.5594  164.3980 C.ar    1  UNL1        0.0304
      6 C         143.2329  140.5212  165.3005 C.ar    1  UNL1       -0.0015
      7 C         141.7781  142.5234  165.1639 C.2     1  UNL1        0.0783
      8 N         141.0047  143.7007  164.6484 N.2     1  UNL1       -0.2444
      9 C         140.8968  144.2047  163.2397 C.ar    1  UNL1        0.0946
     10 C         140.0165  145.4163  163.1570 C.ar    1  UNL1        0.0204
     11 C         139.7753  146.0792  161.8333 C.ar    1  UNL1        0.0016
     12 C         140.4143  145.5304  160.5922 C.ar    1  UNL1        0.0014
     13 C         141.2947  144.3187  160.6748 C.ar    1  UNL1        0.0161
     14 C         141.5359  143.6559  161.9986 C.ar    1  UNL1        0.0662
     15 N         142.4407  142.4675  161.8597 N.pl3   1  UNL1       -0.3113
     16 H         142.7550  142.2744  160.9469 H       1  UNL1        0.1523
     17 C         141.6822  142.2778  166.6405 C.2     1  UNL1       -0.0061
     18 C         142.8837  142.4836  167.5147 C.2     1  UNL1       -0.0132
     19 C         142.7877  142.2379  168.9913 C.3     1  UNL1        0.0796
     20 C         143.9892  142.4437  169.8654 C.3     1  UNL1        0.0222
     21 N         141.4904  141.7864  169.5938 N.3     1  UNL1       -0.2688
     22 C         141.3945  141.5407  171.0704 C.3     1  UNL1        0.0899
     23 C         140.2889  141.5805  168.7196 C.3     1  UNL1        0.0771
     24 C         140.3849  141.8262  167.2430 C.3     1  UNL1        0.0449
     25 C         143.9153  137.8515  166.7634 C.3     1  UNL1        0.0050
     26 C         144.7237  138.4198  165.6350 C.3     1  UNL1        0.0264
@<TRIPOS>BOND
     1    25    26    1
     2    26     1    1
     3     1     2   ar
     4     2     3   ar
     5     3     4   ar
     6     4     5   ar
     7     5     6   ar
     8     5     7    1
     9     7    17    1
    10    17    18    2
    11    18    19    1
    12    19    20    1
    13    19    21    1
    14    21    22    1
    15    21    23    1
    16    23    24    1
    17     7     8    2
    18     8     9    1
    19     9    10   ar
    20    10    11   ar
    21    11    12   ar
    22    12    13   ar
    23    13    14   ar
    24    14    15    1
    25     6     1   ar
    26    24    17    1
    27    14     9   ar
    28    15     4    1
    29    15    16    1
@<TRIPOS>MOLECULE
*****
 26 29 0 0 0
SMALL
GASTEIGER

@<TRIPOS>ATOM
      1 C         143.2044  143.1464  165.0068 C.ar    1  UNL1       -0.0221
      2 C         143.9137  144.3510  164.4632 C.ar    1  UNL1       -0.0030
      3 C         143.5592  144.8809  163.1055 C.ar    1  UNL1        0.0143
      4 C         142.4954  144.2062  162.2913 C.ar    1  UNL1        0.0497
      5 C         141.7860  143.0014  162.8349 C.ar    1  UNL1        0.0304
      6 C         142.1405  142.4715  164.1927 C.ar    1  UNL1       -0.0015
      7 C         140.7034  142.1849  162.1935 C.2     1  UNL1        0.0783
      8 N         140.0629  142.3714  160.8500 N.2     1  UNL1       -0.2444
      9 C         140.3467  143.4205  159.8161 C.ar    1  UNL1        0.0946
     10 C         139.4771  143.2471  158.6064 C.ar    1  UNL1        0.0204
     11 C         139.6018  144.1953  157.4509 C.ar    1  UNL1        0.0016
     12 C         140.5963  145.3170  157.5051 C.ar    1  UNL1        0.0014
     13 C         141.4659  145.4904  158.7149 C.ar    1  UNL1        0.0161
     14 C         141.3411  144.5422  159.8704 C.ar    1  UNL1        0.0662
     15 N         142.2973  144.8918  160.9720 N.pl3   1  UNL1       -0.3113
     16 H         142.8708  145.6749  160.8073 H       1  UNL1        0.1523
     17 C         140.1941  141.0290  163.0025 C.2     1  UNL1       -0.0061
     18 C         140.8847  139.6995  162.9283 C.2     1  UNL1       -0.0132
     19 C         140.3753  138.5436  163.7374 C.3     1  UNL1        0.0796
     20 C         141.0659  137.2142  163.6632 C.3     1  UNL1        0.0222
     21 N         139.1754  138.7173  164.6206 N.3     1  UNL1       -0.2688
     22 C         138.6661  137.5614  165.4296 C.3     1  UNL1        0.0899
     23 C         138.4848  140.0468  164.6948 C.3     1  UNL1        0.0771
     24 C         138.9942  141.2027  163.8857 C.3     1  UNL1        0.0449
     25 C         142.5935  141.7366  167.1019 C.3     1  UNL1        0.0050
     26 C         143.5589  142.6165  166.3646 C.3     1  UNL1        0.0264
@<TRIPOS>BOND
     1    25    26    1
     2    26     1    1
     3     1     2   ar
     4     2     3   ar
     5     3     4   ar
     6     4     5   ar
     7     5     6   ar
     8     5     7    1
     9     7    17    1
    10    17    18    2
    11    18    19    1
    12    19    20    1
    13    19    21    1
    14    21    22    1
    15    21    23    1
    16    23    24    1
    17     7     8    2
    18     8     9    1
    19     9    10   ar
    20    10    11   ar
    21    11    12   ar
    22    12    13   ar
    23    13    14   ar
    24    14    15    1
    25     6     1   ar
    26    24    17    1
    27    14     9   ar
    28    15     4    1
    29    15    16    1
@<TRIPOS>MOLECULE
*****
 26 29 0 0 0
SMALL
GASTEIGER

@<TRIPOS>ATOM
      1 C         138.3375  143.4262  164.0691 C.ar    1  UNL1       -0.0221
      2 C         137.9816  143.3741  162.6129 C.ar    1  UNL1       -0.0030
      3 C         138.7179  142.4452  161.6937 C.ar    1  UNL1        0.0143
      4 C         139.8100  141.5684  162.2306 C.ar    1  UNL1        0.0497
      5 C         140.1660  141.6205  163.6869 C.ar    1  UNL1        0.0304
      6 C         139.4298  142.5494  164.6061 C.ar    1  UNL1       -0.0015
      7 C         141.2133  140.8379  164.4223 C.2     1  UNL1        0.0783
      8 N         142.1632  139.8099  163.8830 N.2     1  UNL1       -0.2444
      9 C         142.3006  139.3105  162.4752 C.ar    1  UNL1        0.0946
     10 C         143.3799  138.2748  162.3640 C.ar    1  UNL1        0.0204
     11 C         143.6804  137.6445  161.0365 C.ar    1  UNL1        0.0016
     12 C         142.9017  138.0499  159.8203 C.ar    1  UNL1        0.0014
     13 C         141.8224  139.0856  159.9315 C.ar    1  UNL1        0.0161
     14 C         141.5219  139.7159  161.2590 C.ar    1  UNL1        0.0662
     15 N         140.4135  140.7207  161.1502 N.pl3   1  UNL1       -0.3113
     16 H         140.0315  140.8396  160.2506 H       1  UNL1        0.1523
     17 C         141.3254  141.1207  165.8911 C.2     1  UNL1       -0.0061
     18 C         140.2937  140.5846  166.8390 C.2     1  UNL1       -0.0132
     19 C         140.4059  140.8675  168.3078 C.3     1  UNL1        0.0796
     20 C         139.3743  140.3315  169.2556 C.3     1  UNL1        0.0222
     21 N         141.5496  141.6863  168.8287 N.3     1  UNL1       -0.2688
     22 C         141.6617  141.9691  170.2975 C.3     1  UNL1        0.0899
     23 C         142.5813  142.2224  167.8808 C.3     1  UNL1        0.0771
     24 C         142.4691  141.9395  166.4120 C.3     1  UNL1        0.0449
     25 C         138.3571  145.1625  166.0018 C.3     1  UNL1        0.0050
     26 C         137.6013  144.3552  164.9884 C.3     1  UNL1        0.0264
@<TRIPOS>BOND
     1    25    26    1
     2    26     1    1
     3     1     2   ar
     4     2     3   ar
     5     3     4   ar
     6     4     5   ar
     7     5     6   ar
     8     5     7    1
     9     7    17    1
    10    17    18    2
    11    18    19    1
    12    19    20    1
    13    19    21    1
    14    21    22    1
    15    21    23    1
    16    23    24    1
    17     7     8    2
    18     8     9    1
    19     9    10   ar
    20    10    11   ar
    21    11    12   ar
    22    12    13   ar
    23    13    14   ar
    24    14    15    1
    25     6     1   ar
    26    24    17    1
    27    14     9   ar
    28    15     4    1
    29    15    16    1
@<TRIPOS>MOLECULE
*****
 26 29 0 0 0
SMALL
GASTEIGER

@<TRIPOS>ATOM
      1 C         143.3091  143.0257  163.2909 C.ar    1  UNL1       -0.0221
      2 C         144.3388  143.5095  164.2683 C.ar    1  UNL1       -0.0030
      3 C         144.1825  143.2135  165.7305 C.ar    1  UNL1        0.0143
      4 C         142.9964  142.4336  166.2152 C.ar    1  UNL1        0.0497
      5 C         141.9666  141.9497  165.2377 C.ar    1  UNL1        0.0304
      6 C         142.1230  142.2457  163.7756 C.ar    1  UNL1       -0.0015
      7 C         140.7186  141.1623  165.5070 C.2     1  UNL1        0.0783
      8 N         140.1921  140.6644  166.8204 N.2     1  UNL1       -0.2444
      9 C         140.7836  140.8308  168.1888 C.ar    1  UNL1        0.0946
     10 C         139.9337  140.1752  169.2366 C.ar    1  UNL1        0.0204
     11 C         140.3479  140.2250  170.6773 C.ar    1  UNL1        0.0016
     12 C         141.6120  140.9305  171.0703 C.ar    1  UNL1        0.0014
     13 C         142.4618  141.5861  170.0226 C.ar    1  UNL1        0.0161
     14 C         142.0476  141.5363  168.5818 C.ar    1  UNL1        0.0662
     15 N         143.0324  142.2496  167.7034 N.pl3   1  UNL1       -0.3113
     16 H         143.8045  142.6499  168.1648 H       1  UNL1        0.1523
     17 C         139.8871  140.8288  164.3040 C.2     1  UNL1       -0.0061
     18 C         140.1973  139.6051  163.4937 C.2     1  UNL1       -0.0132
     19 C         139.3658  139.2716  162.2906 C.3     1  UNL1        0.0796
     20 C         139.6759  138.0480  161.4805 C.3     1  UNL1        0.0222
     21 N         138.2242  140.1618  161.8977 N.3     1  UNL1       -0.2688
     22 C         137.3928  139.8283  160.6947 C.3     1  UNL1        0.0899
     23 C         137.9141  141.3855  162.7079 C.3     1  UNL1        0.0771
     24 C         138.7456  141.7190  163.9110 C.3     1  UNL1        0.0449
     25 C         144.5615  142.6644  161.0434 C.3     1  UNL1        0.0050
     26 C         143.4655  143.3217  161.8287 C.3     1  UNL1        0.0264
@<TRIPOS>BOND
     1    25    26    1
     2    26     1    1
     3     1     2   ar
     4     2     3   ar
     5     3     4   ar
     6     4     5   ar
     7     5     6   ar
     8     5     7    1
     9     7    17    1
    10    17    18    2
    11    18    19    1
    12    19    20    1
    13    19    21    1
    14    21    22    1
    15    21    23    1
    16    23    24    1
    17     7     8    2
    18     8     9    1
    19     9    10   ar
    20    10    11   ar
    21    11    12   ar
    22    12    13   ar
    23    13    14   ar
    24    14    15    1
    25     6     1   ar
    26    24    17    1
    27    14     9   ar
    28    15     4    1
    29    15    16    1
@<TRIPOS>MOLECULE
*****
 26 29 0 0 0
SMALL
GASTEIGER

@<TRIPOS>ATOM
      1 C         139.2437  138.6252  164.0420 C.ar    1  UNL1       -0.0221
      2 C         138.3964  138.1669  165.1917 C.ar    1  UNL1       -0.0030
      3 C         138.6776  138.6682  166.5772 C.ar    1  UNL1        0.0143
      4 C         139.8060  139.6278  166.8130 C.ar    1  UNL1        0.0497
      5 C         140.6534  140.0862  165.6633 C.ar    1  UNL1        0.0304
      6 C         140.3723  139.5849  164.2778 C.ar    1  UNL1       -0.0015
      7 C         141.8181  141.0315  165.6782 C.2     1  UNL1        0.0783
      8 N         142.4229  141.7518  166.8466 N.2     1  UNL1       -0.2444
      9 C         142.0126  141.7048  168.2887 C.ar    1  UNL1        0.0946
     10 C         142.8875  142.5802  169.1362 C.ar    1  UNL1        0.0204
     11 C         142.6459  142.6766  170.6134 C.ar    1  UNL1        0.0016
     12 C         141.5294  141.8977  171.2432 C.ar    1  UNL1        0.0014
     13 C         140.6545  141.0223  170.3957 C.ar    1  UNL1        0.0161
     14 C         140.8961  140.9259  168.9185 C.ar    1  UNL1        0.0662
     15 N         139.9141  140.0016  168.2617 N.pl3   1  UNL1       -0.3113
     16 H         139.2530  139.5851  168.8607 H       1  UNL1        0.1523
     17 C         142.4630  141.2906  164.3490 C.2     1  UNL1       -0.0061
     18 C         142.0060  142.4440  163.5058 C.2     1  UNL1       -0.0132
     19 C         142.6511  142.7031  162.1765 C.3     1  UNL1        0.0796
     20 C         142.1941  143.8564  161.3334 C.3     1  UNL1        0.0222
     21 N         143.7530  141.8089  161.6906 N.3     1  UNL1       -0.2688
     22 C         144.3980  142.0681  160.3614 C.3     1  UNL1        0.0899
     23 C         144.2100  140.6556  162.5338 C.3     1  UNL1        0.0771
     24 C         143.5649  140.3965  163.8630 C.3     1  UNL1        0.0449
     25 C         140.0816  137.9865  161.6672 C.3     1  UNL1        0.0050
     26 C         138.9626  138.1239  162.6565 C.3     1  UNL1        0.0264
@<TRIPOS>BOND
     1    25    26    1
     2    26     1    1
     3     1     2   ar
     4     2     3   ar
     5     3     4   ar
     6     4     5   ar
     7     5     6   ar
     8     5     7    1
     9     7    17    1
    10    17    18    2
    11    18    19    1
    12    19    20    1
    13    19    21    1
    14    21    22    1
    15    21    23    1
    16    23    24    1
    17     7     8    2
    18     8     9    1
    19     9    10   ar
    20    10    11   ar
    21    11    12   ar
    22    12    13   ar
    23    13    14   ar
    24    14    15    1
    25     6     1   ar
    26    24    17    1
    27    14     9   ar
    28    15     4    1
    29    15    16    1
@<TRIPOS>MOLECULE
*****
 26 29 0 0 0
SMALL
GASTEIGER

@<TRIPOS>ATOM
      1 C         138.9674  138.8860  164.0665 C.ar    1  UNL1       -0.0221
      2 C         138.2252  138.5982  162.7952 C.ar    1  UNL1       -0.0030
      3 C         138.3163  139.5520  161.6411 C.ar    1  UNL1        0.0143
      4 C         139.1497  140.7937  161.7583 C.ar    1  UNL1        0.0497
      5 C         139.8920  141.0815  163.0296 C.ar    1  UNL1        0.0304
      6 C         139.8008  140.1277  164.1837 C.ar    1  UNL1       -0.0015
      7 C         140.7721  142.2520  163.3543 C.2     1  UNL1        0.0783
      8 N         141.1272  143.4237  162.4877 N.2     1  UNL1       -0.2444
      9 C         140.6901  143.7145  161.0826 C.ar    1  UNL1        0.0946
     10 C         141.2778  145.0000  160.5807 C.ar    1  UNL1        0.0204
     11 C         140.9652  145.4762  159.1931 C.ar    1  UNL1        0.0016
     12 C         140.0649  144.6669  158.3074 C.ar    1  UNL1        0.0014
     13 C         139.4771  143.3814  158.8093 C.ar    1  UNL1        0.0161
     14 C         139.7898  142.9052  160.1969 C.ar    1  UNL1        0.0662
     15 N         139.1042  141.6053  160.4977 N.pl3   1  UNL1       -0.3113
     16 H         138.5513  141.2360  159.7716 H       1  UNL1        0.1523
     17 C         141.3769  142.2506  164.7269 C.2     1  UNL1       -0.0061
     18 C         140.5514  142.6596  165.9107 C.2     1  UNL1       -0.0132
     19 C         141.1564  142.6581  167.2833 C.3     1  UNL1        0.0796
     20 C         140.3309  143.0670  168.4670 C.3     1  UNL1        0.0222
     21 N         142.5867  142.2477  167.4722 N.3     1  UNL1       -0.2688
     22 C         143.1916  142.2462  168.8447 C.3     1  UNL1        0.0899
     23 C         143.4122  141.8387  166.2883 C.3     1  UNL1        0.0771
     24 C         142.8073  141.8402  164.9157 C.3     1  UNL1        0.0449
     25 C         137.9929  138.2518  166.3898 C.3     1  UNL1        0.0050
     26 C         138.8763  137.9322  165.2205 C.3     1  UNL1        0.0264
@<TRIPOS>BOND
     1    25    26    1
     2    26     1    1
     3     1     2   ar
     4     2     3   ar
     5     3     4   ar
     6     4     5   ar
     7     5     6   ar
     8     5     7    1
     9     7    17    1
    10    17    18    2
    11    18    19    1
    12    19    20    1
    13    19    21    1
    14    21    22    1
    15    21    23    1
    16    23    24    1
    17     7     8    2
    18     8     9    1
    19     9    10   ar
    20    10    11   ar
    21    11    12   ar
    22    12    13   ar
    23    13    14   ar
    24    14    15    1
    25     6     1   ar
    26    24    17    1
    27    14     9   ar
    28    15     4    1
    29    15    16    1
