@<TRIPOS>MOLECULE
*****
 40 43 0 0 0
SMALL
GASTEIGER

@<TRIPOS>ATOM
      1 C         140.7201  140.5996  163.1161 C.3     1  UNL1        0.0822
      2 C         140.4455  140.5205  164.5887 C.ar    1  UNL1        0.0375
      3 C         140.6320  141.7324  165.4526 C.ar    1  UNL1        0.0023
      4 C         140.3573  141.6533  166.9252 C.ar    1  UNL1        0.0181
      5 C         140.5438  142.8652  167.7891 C.ar    1  UNL1        0.0082
      6 C         140.2691  142.7861  169.2615 C.ar    1  UNL1        0.0347
      7 BR        140.4556  143.9980  170.1255 Br      1  UNL1       -0.0490
      8 C         139.8080  141.4949  169.8701 C.ar    1  UNL1        0.0082
      9 C         139.6215  140.2830  169.0062 C.ar    1  UNL1        0.0197
     10 C         139.8961  140.3622  167.5337 C.ar    1  UNL1        0.0844
     11 N         139.7096  139.1502  166.6697 N.ar    1  UNL1       -0.2119
     12 C         139.9843  139.2294  165.1973 C.ar    1  UNL1        0.2211
     13 O         139.7978  138.0174  164.3333 O.3     1  UNL1       -0.4563
     14 C         140.7876  136.8921  164.3960 C.3     1  UNL1        0.2542
     15 C         141.7261  139.6797  162.4903 C.ar    1  UNL1        0.0375
     16 C         143.1419  139.6680  162.9856 C.ar    1  UNL1        0.0023
     17 C         144.1479  138.7481  162.3598 C.ar    1  UNL1        0.0206
     18 C         143.7380  137.8397  161.2387 C.ar    1  UNL1        0.1020
     19 N         142.3222  137.8513  160.7434 N.ar    1  UNL1       -0.2104
     20 C         141.3162  138.7713  161.3693 C.ar    1  UNL1        0.2211
     21 O         139.9004  138.7829  160.8740 O.3     1  UNL1       -0.4563
     22 C         139.6068  139.1530  159.4503 C.3     1  UNL1        0.2542
     23 C         139.9888  141.5988  162.2694 C.3     1  UNL1        0.1163
     24 O         138.6962  140.8922  162.5522 O.3     1  UNL1       -0.3820
     25 H         137.9717  141.3491  162.0969 H       1  UNL1        0.2107
     26 C         143.1495  142.9970  160.3188 C.ar    1  UNL1        0.2272
     27 C         141.8569  142.2905  160.6016 C.ar    1  UNL1        0.0559
     28 C         141.2814  142.3053  161.9867 C.ar    1  UNL1        0.0117
     29 C         141.9986  143.0267  163.0890 C.ar    1  UNL1        0.0559
     30 C         143.2912  143.7332  162.8063 C.ar    1  UNL1        0.2272
     31 N         143.8666  143.7184  161.4212 N.ar    1  UNL1       -0.1767
     32 C         142.9995  143.6660  157.8128 C.3     1  UNL1        0.2542
     33 O         143.7249  142.9822  158.9336 O.3     1  UNL1       -0.4561
     34 O         144.0084  144.4546  163.9088 O.3     1  UNL1       -0.4561
     35 C         144.4057  143.7173  165.1532 C.3     1  UNL1        0.2542
     36 C         139.2575  142.5979  161.4227 C.3     1  UNL1        0.0491
     37 C         138.3451  143.6003  162.0650 C.3     1  UNL1        0.0750
     38 N         138.9197  144.7523  162.8349 N.3     1  UNL1       -0.2702
     39 C         139.5850  145.8830  162.1076 C.3     1  UNL1        0.0897
     40 C         138.8291  144.7737  164.3320 C.3     1  UNL1        0.0897
@<TRIPOS>BOND
     1    32    33    1
     2    33    26    1
     3    26    27   ar
     4    27    28   ar
     5    28    23    1
     6    23    24    1
     7    23    36    1
     8    36    37    1
     9    37    38    1
    10    38    39    1
    11    38    40    1
    12    23     1    1
    13     1    15    1
    14    15    16   ar
    15    16    17   ar
    16    17    18   ar
    17    18    19   ar
    18    19    20   ar
    19    20    21    1
    20    21    22    1
    21     1     2    1
    22     2     3   ar
    23     3     4   ar
    24     4     5   ar
    25     5     6   ar
    26     6     7    1
    27     6     8   ar
    28     8     9   ar
    29     9    10   ar
    30    10    11   ar
    31    11    12   ar
    32    12    13    1
    33    13    14    1
    34    28    29   ar
    35    29    30   ar
    36    30    34    1
    37    34    35    1
    38    30    31   ar
    39    31    26   ar
    40    20    15   ar
    41    12     2   ar
    42    10     4   ar
    43    24    25    1
@<TRIPOS>MOLECULE
*****
 40 43 0 0 0
SMALL
GASTEIGER

@<TRIPOS>ATOM
      1 C         140.6650  140.5407  163.1858 C.3     1  UNL1        0.0822
      2 C         140.3717  140.4873  164.6559 C.ar    1  UNL1        0.0375
      3 C         140.6105  141.6950  165.5127 C.ar    1  UNL1        0.0023
      4 C         140.3172  141.6416  166.9828 C.ar    1  UNL1        0.0181
      5 C         140.5560  142.8494  167.8396 C.ar    1  UNL1        0.0082
      6 C         140.2627  142.7959  169.3097 C.ar    1  UNL1        0.0347
      7 BR        140.5016  144.0037  170.1666 Br      1  UNL1       -0.0490
      8 C         139.7305  141.5347  169.9229 C.ar    1  UNL1        0.0082
      9 C         139.4917  140.3269  169.0661 C.ar    1  UNL1        0.0197
     10 C         139.7850  140.3804  167.5960 C.ar    1  UNL1        0.0844
     11 N         139.5461  139.1725  166.7391 N.ar    1  UNL1       -0.2119
     12 C         139.8395  139.2260  165.2691 C.ar    1  UNL1        0.2211
     13 O         139.6006  138.0182  164.4122 O.3     1  UNL1       -0.4563
     14 C         140.5759  136.8787  164.4336 C.3     1  UNL1        0.2542
     15 C         141.7575  139.6909  162.6076 C.ar    1  UNL1        0.0375
     16 C         143.1533  139.7944  163.1472 C.ar    1  UNL1        0.0023
     17 C         144.2458  138.9446  162.5691 C.ar    1  UNL1        0.0206
     18 C         143.9426  137.9914  161.4512 C.ar    1  UNL1        0.1020
     19 N         142.5468  137.8879  160.9116 N.ar    1  UNL1       -0.2104
     20 C         141.4543  138.7377  161.4899 C.ar    1  UNL1        0.2211
     21 O         140.0585  138.6343  160.9503 O.3     1  UNL1       -0.4563
     22 C         139.7913  138.9188  159.5020 C.3     1  UNL1        0.2542
     23 C         139.8658  141.4439  162.2939 C.3     1  UNL1        0.1163
     24 O         138.6529  140.5896  162.5156 O.3     1  UNL1       -0.3820
     25 H         137.9042  140.9561  162.0196 H       1  UNL1        0.2107
     26 C         142.9402  143.8491  163.0097 C.ar    1  UNL1        0.2272
     27 C         141.7274  142.9948  163.2314 C.ar    1  UNL1        0.0559
     28 C         141.0786  142.2982  162.0722 C.ar    1  UNL1        0.0117
     29 C         141.6427  142.4559  160.6913 C.ar    1  UNL1        0.0559
     30 C         142.8556  143.3102  160.4696 C.ar    1  UNL1        0.2272
     31 N         143.5043  144.0068  161.6288 N.ar    1  UNL1       -0.1767
     32 C         144.4282  143.7667  165.1379 C.3     1  UNL1        0.2542
     33 O         143.5890  144.5458  164.1690 O.3     1  UNL1       -0.4561
     34 O         143.4196  143.4679  159.0886 O.3     1  UNL1       -0.4561
     35 C         144.4631  142.5120  158.5911 C.3     1  UNL1        0.2542
     36 C         139.0666  142.3471  161.4020 C.3     1  UNL1        0.0491
     37 C         137.9852  143.2093  161.9827 C.3     1  UNL1        0.0750
     38 N         138.3293  144.2696  162.9864 N.3     1  UNL1       -0.2702
     39 C         139.1006  145.4835  162.5605 C.3     1  UNL1        0.0897
     40 C         137.9021  144.1159  164.4160 C.3     1  UNL1        0.0897
@<TRIPOS>BOND
     1    32    33    1
     2    33    26    1
     3    26    27   ar
     4    27    28   ar
     5    28    23    1
     6    23    24    1
     7    23    36    1
     8    36    37    1
     9    37    38    1
    10    38    39    1
    11    38    40    1
    12    23     1    1
    13     1    15    1
    14    15    16   ar
    15    16    17   ar
    16    17    18   ar
    17    18    19   ar
    18    19    20   ar
    19    20    21    1
    20    21    22    1
    21     1     2    1
    22     2     3   ar
    23     3     4   ar
    24     4     5   ar
    25     5     6   ar
    26     6     7    1
    27     6     8   ar
    28     8     9   ar
    29     9    10   ar
    30    10    11   ar
    31    11    12   ar
    32    12    13    1
    33    13    14    1
    34    28    29   ar
    35    29    30   ar
    36    30    34    1
    37    34    35    1
    38    30    31   ar
    39    31    26   ar
    40    20    15   ar
    41    12     2   ar
    42    10     4   ar
    43    24    25    1
@<TRIPOS>MOLECULE
*****
 40 43 0 0 0
SMALL
GASTEIGER

@<TRIPOS>ATOM
      1 C         141.3762  140.7549  163.1578 C.3     1  UNL1        0.0822
      2 C         141.4406  140.6395  164.6520 C.ar    1  UNL1        0.0375
      3 C         141.0260  141.7963  165.5122 C.ar    1  UNL1        0.0023
      4 C         141.0904  141.6810  167.0064 C.ar    1  UNL1        0.0181
      5 C         140.6757  142.8378  167.8665 C.ar    1  UNL1        0.0082
      6 C         140.7401  142.7223  169.3606 C.ar    1  UNL1        0.0347
      7 BR        140.3254  143.8792  170.2208 Br      1  UNL1       -0.0490
      8 C         141.2192  141.4501  169.9946 C.ar    1  UNL1        0.0082
      9 C         141.6338  140.2933  169.1345 C.ar    1  UNL1        0.0197
     10 C         141.5694  140.4088  167.6404 C.ar    1  UNL1        0.0844
     11 N         141.9841  139.2519  166.7802 N.ar    1  UNL1       -0.2119
     12 C         141.9197  139.3673  165.2861 C.ar    1  UNL1        0.2211
     13 O         142.3344  138.2105  164.4259 O.3     1  UNL1       -0.4563
     14 C         141.4101  137.0435  164.2420 C.3     1  UNL1        0.2542
     15 C         140.3497  139.9770  162.3891 C.ar    1  UNL1        0.0375
     16 C         138.9010  140.0694  162.7668 C.ar    1  UNL1        0.0023
     17 C         137.8744  139.2915  161.9980 C.ar    1  UNL1        0.0206
     18 C         138.2966  138.4211  160.8515 C.ar    1  UNL1        0.1020
     19 N         139.7453  138.3288  160.4738 N.ar    1  UNL1       -0.2104
     20 C         140.7719  139.1067  161.2427 C.ar    1  UNL1        0.2211
     21 O         142.2206  139.0144  160.8650 O.3     1  UNL1       -0.4563
     22 C         142.9011  137.6783  160.8232 C.3     1  UNL1        0.2542
     23 C         142.3384  141.6482  162.4324 C.3     1  UNL1        0.1163
     24 O         143.4707  140.7445  162.8213 O.3     1  UNL1       -0.3820
     25 H         144.3013  141.0943  162.4629 H       1  UNL1        0.2107
     26 C         139.4005  144.3036  162.6928 C.ar    1  UNL1        0.2272
     27 C         140.5327  143.3998  163.0817 C.ar    1  UNL1        0.0559
     28 C         141.2062  142.5520  162.0436 C.ar    1  UNL1        0.0117
     29 C         140.7473  142.6080  160.6166 C.ar    1  UNL1        0.0559
     30 C         139.6151  143.5117  160.2277 C.ar    1  UNL1        0.2272
     31 N         138.9417  144.3595  161.2658 N.ar    1  UNL1       -0.1767
     32 C         138.7999  144.7639  165.1783 C.3     1  UNL1        0.2542
     33 O         138.7271  145.1514  163.7310 O.3     1  UNL1       -0.4561
     34 O         139.1562  143.5677  158.8007 O.3     1  UNL1       -0.4561
     35 C         138.2364  142.5100  158.2666 C.3     1  UNL1        0.2542
     36 C         143.3006  142.5416  161.7070 C.3     1  UNL1        0.0491
     37 C         144.4322  143.1863  162.4511 C.3     1  UNL1        0.0750
     38 N         144.1820  143.8382  163.7787 N.3     1  UNL1       -0.2702
     39 C         143.5737  145.2080  163.8388 C.3     1  UNL1        0.0897
     40 C         144.5400  143.1204  165.0461 C.3     1  UNL1        0.0897
@<TRIPOS>BOND
     1    32    33    1
     2    33    26    1
     3    26    27   ar
     4    27    28   ar
     5    28    23    1
     6    23    24    1
     7    23    36    1
     8    36    37    1
     9    37    38    1
    10    38    39    1
    11    38    40    1
    12    23     1    1
    13     1    15    1
    14    15    16   ar
    15    16    17   ar
    16    17    18   ar
    17    18    19   ar
    18    19    20   ar
    19    20    21    1
    20    21    22    1
    21     1     2    1
    22     2     3   ar
    23     3     4   ar
    24     4     5   ar
    25     5     6   ar
    26     6     7    1
    27     6     8   ar
    28     8     9   ar
    29     9    10   ar
    30    10    11   ar
    31    11    12   ar
    32    12    13    1
    33    13    14    1
    34    28    29   ar
    35    29    30   ar
    36    30    34    1
    37    34    35    1
    38    30    31   ar
    39    31    26   ar
    40    20    15   ar
    41    12     2   ar
    42    10     4   ar
    43    24    25    1
@<TRIPOS>MOLECULE
*****
 40 43 0 0 0
SMALL
GASTEIGER

@<TRIPOS>ATOM
      1 C         141.3721  140.7423  163.1744 C.3     1  UNL1        0.0822
      2 C         141.4373  140.6359  164.6693 C.ar    1  UNL1        0.0375
      3 C         141.0229  141.7977  165.5227 C.ar    1  UNL1        0.0023
      4 C         141.0881  141.6913  167.0175 C.ar    1  UNL1        0.0181
      5 C         140.6737  142.8531  167.8709 C.ar    1  UNL1        0.0082
      6 C         140.7389  142.7467  169.3657 C.ar    1  UNL1        0.0347
      7 BR        140.3245  143.9086  170.2192 Br      1  UNL1       -0.0490
      8 C         141.2185  141.4784  170.0071 C.ar    1  UNL1        0.0082
      9 C         141.6329  140.3165  169.1537 C.ar    1  UNL1        0.0197
     10 C         141.5677  140.4230  167.6589 C.ar    1  UNL1        0.0844
     11 N         141.9821  139.2611  166.8054 N.ar    1  UNL1       -0.2119
     12 C         141.9169  139.3676  165.3107 C.ar    1  UNL1        0.2211
     13 O         142.3313  138.2057  164.4572 O.3     1  UNL1       -0.4563
     14 C         141.4072  137.0374  164.2807 C.3     1  UNL1        0.2542
     15 C         140.3459  139.9589  162.4108 C.ar    1  UNL1        0.0375
     16 C         138.8975  140.0510  162.7896 C.ar    1  UNL1        0.0023
     17 C         137.8713  139.2676  162.0260 C.ar    1  UNL1        0.0206
     18 C         138.2935  138.3921  160.8835 C.ar    1  UNL1        0.1020
     19 N         139.7420  138.3000  160.5047 N.ar    1  UNL1       -0.2104
     20 C         140.7682  139.0834  161.2684 C.ar    1  UNL1        0.2211
     21 O         142.2166  138.9913  160.8896 O.3     1  UNL1       -0.4563
     22 C         142.8836  137.6510  160.7958 C.3     1  UNL1        0.2542
     23 C         142.3332  141.6321  162.4433 C.3     1  UNL1        0.1163
     24 O         143.4655  140.7282  162.8316 O.3     1  UNL1       -0.3820
     25 H         144.2955  141.0759  162.4695 H       1  UNL1        0.2107
     26 C         139.5964  143.4819  160.2437 C.ar    1  UNL1        0.2272
     27 C         140.7287  142.5779  160.6319 C.ar    1  UNL1        0.0559
     28 C         141.2008  142.5361  162.0550 C.ar    1  UNL1        0.0117
     29 C         140.5406  143.3981  163.0899 C.ar    1  UNL1        0.0559
     30 C         139.4083  144.3020  162.7016 C.ar    1  UNL1        0.2272
     31 N         138.9362  144.3439  161.2785 N.ar    1  UNL1       -0.1767
     32 C         139.9205  144.2650  157.7877 C.3     1  UNL1        0.2542
     33 O         139.1243  143.5237  158.8204 O.3     1  UNL1       -0.4561
     34 O         138.7481  145.1641  163.7366 O.3     1  UNL1       -0.4561
     35 C         138.8144  144.7807  165.1852 C.3     1  UNL1        0.2542
     36 C         143.2942  142.5220  161.7122 C.3     1  UNL1        0.0491
     37 C         144.4283  143.1685  162.4510 C.3     1  UNL1        0.0750
     38 N         144.1836  143.8183  163.7806 N.3     1  UNL1       -0.2702
     39 C         144.5345  143.0928  165.0458 C.3     1  UNL1        0.0897
     40 C         143.5881  145.1934  163.8452 C.3     1  UNL1        0.0897
@<TRIPOS>BOND
     1    32    33    1
     2    33    26    1
     3    26    27   ar
     4    27    28   ar
     5    28    23    1
     6    23    24    1
     7    23    36    1
     8    36    37    1
     9    37    38    1
    10    38    39    1
    11    38    40    1
    12    23     1    1
    13     1    15    1
    14    15    16   ar
    15    16    17   ar
    16    17    18   ar
    17    18    19   ar
    18    19    20   ar
    19    20    21    1
    20    21    22    1
    21     1     2    1
    22     2     3   ar
    23     3     4   ar
    24     4     5   ar
    25     5     6   ar
    26     6     7    1
    27     6     8   ar
    28     8     9   ar
    29     9    10   ar
    30    10    11   ar
    31    11    12   ar
    32    12    13    1
    33    13    14    1
    34    28    29   ar
    35    29    30   ar
    36    30    34    1
    37    34    35    1
    38    30    31   ar
    39    31    26   ar
    40    20    15   ar
    41    12     2   ar
    42    10     4   ar
    43    24    25    1
@<TRIPOS>MOLECULE
*****
 40 43 0 0 0
SMALL
GASTEIGER

@<TRIPOS>ATOM
      1 C         141.6385  141.4405  163.6305 C.3     1  UNL1        0.0822
      2 C         142.0939  141.7104  165.0340 C.ar    1  UNL1        0.0375
      3 C         141.3689  141.0884  166.1905 C.ar    1  UNL1        0.0023
      4 C         141.8243  141.3583  167.5940 C.ar    1  UNL1        0.0181
      5 C         141.0993  140.7364  168.7505 C.ar    1  UNL1        0.0082
      6 C         141.5547  141.0063  170.1539 C.ar    1  UNL1        0.0347
      7 BR        140.8297  140.3843  171.3104 Br      1  UNL1       -0.0490
      8 C         142.7352  141.8982  170.4009 C.ar    1  UNL1        0.0082
      9 C         143.4602  142.5202  169.2444 C.ar    1  UNL1        0.0197
     10 C         143.0048  142.2502  167.8410 C.ar    1  UNL1        0.0844
     11 N         143.7298  142.8722  166.6845 N.ar    1  UNL1       -0.2119
     12 C         143.2744  142.6023  165.2810 C.ar    1  UNL1        0.2211
     13 O         143.9995  143.2243  164.1245 O.3     1  UNL1       -0.4563
     14 C         143.9117  144.7036  163.8923 C.3     1  UNL1        0.2542
     15 C         142.4879  140.6124  162.7126 C.ar    1  UNL1        0.0375
     16 C         142.8244  139.1964  163.0757 C.ar    1  UNL1        0.0023
     17 C         143.6738  138.3683  162.1578 C.ar    1  UNL1        0.0206
     18 C         144.1868  138.9562  160.8766 C.ar    1  UNL1        0.1020
     19 N         143.8504  140.3721  160.5134 N.ar    1  UNL1       -0.2104
     20 C         143.0009  141.2002  161.4314 C.ar    1  UNL1        0.2211
     21 O         142.6644  142.6162  161.0683 O.3     1  UNL1       -0.4563
     22 C         143.1565  143.1960  159.7754 C.3     1  UNL1        0.2542
     23 C         140.3337  141.9987  163.1450 C.3     1  UNL1        0.1163
     24 O         140.8841  143.3890  163.2641 O.3     1  UNL1       -0.3820
     25 H         140.2072  144.0290  162.9938 H       1  UNL1        0.2107
     26 C         138.8150  138.4690  164.1373 C.ar    1  UNL1        0.2272
     27 C         139.3655  139.8593  164.2564 C.ar    1  UNL1        0.0559
     28 C         139.7832  140.6085  163.0259 C.ar    1  UNL1        0.0117
     29 C         139.6505  139.9675  161.6763 C.ar    1  UNL1        0.0559
     30 C         139.1000  138.5772  161.5572 C.ar    1  UNL1        0.2272
     31 N         138.6823  137.8280  162.7877 N.ar    1  UNL1       -0.1767
     32 C         137.9215  138.4693  166.5769 C.3     1  UNL1        0.2542
     33 O         138.3972  137.7198  165.3678 O.3     1  UNL1       -0.4561
     34 O         138.9673  137.9362  160.2075 O.3     1  UNL1       -0.4561
     35 C         139.7203  138.4927  159.0357 C.3     1  UNL1        0.2542
     36 C         139.0288  142.5570  162.6595 C.3     1  UNL1        0.0491
     37 C         138.9766  143.9331  162.0649 C.3     1  UNL1        0.0750
     38 N         139.5445  144.1819  160.6990 N.3     1  UNL1       -0.2702
     39 C         139.3929  143.1472  159.6238 C.3     1  UNL1        0.0897
     40 C         140.2641  145.4656  160.4084 C.3     1  UNL1        0.0897
@<TRIPOS>BOND
     1    32    33    1
     2    33    26    1
     3    26    27   ar
     4    27    28   ar
     5    28    23    1
     6    23    24    1
     7    23    36    1
     8    36    37    1
     9    37    38    1
    10    38    39    1
    11    38    40    1
    12    23     1    1
    13     1    15    1
    14    15    16   ar
    15    16    17   ar
    16    17    18   ar
    17    18    19   ar
    18    19    20   ar
    19    20    21    1
    20    21    22    1
    21     1     2    1
    22     2     3   ar
    23     3     4   ar
    24     4     5   ar
    25     5     6   ar
    26     6     7    1
    27     6     8   ar
    28     8     9   ar
    29     9    10   ar
    30    10    11   ar
    31    11    12   ar
    32    12    13    1
    33    13    14    1
    34    28    29   ar
    35    29    30   ar
    36    30    34    1
    37    34    35    1
    38    30    31   ar
    39    31    26   ar
    40    20    15   ar
    41    12     2   ar
    42    10     4   ar
    43    24    25    1
@<TRIPOS>MOLECULE
*****
 40 43 0 0 0
SMALL
GASTEIGER

@<TRIPOS>ATOM
      1 C         141.6358  141.4422  163.6371 C.3     1  UNL1        0.0822
      2 C         142.0934  141.7118  165.0400 C.ar    1  UNL1        0.0375
      3 C         141.3608  141.1018  166.1981 C.ar    1  UNL1        0.0023
      4 C         141.8184  141.3713  167.6010 C.ar    1  UNL1        0.0181
      5 C         141.0857  140.7613  168.7591 C.ar    1  UNL1        0.0082
      6 C         141.5433  141.0309  170.1619 C.ar    1  UNL1        0.0347
      7 BR        140.8107  140.4209  171.3200 Br      1  UNL1       -0.0490
      8 C         142.7335  141.9104  170.4066 C.ar    1  UNL1        0.0082
      9 C         143.4661  142.5204  169.2485 C.ar    1  UNL1        0.0197
     10 C         143.0086  142.2508  167.8457 C.ar    1  UNL1        0.0844
     11 N         143.7412  142.8608  166.6876 N.ar    1  UNL1       -0.2119
     12 C         143.2836  142.5913  165.2848 C.ar    1  UNL1        0.2211
     13 O         144.0162  143.2013  164.1266 O.3     1  UNL1       -0.4563
     14 C         143.9037  144.6729  163.8592 C.3     1  UNL1        0.2542
     15 C         142.4848  140.6161  162.7170 C.ar    1  UNL1        0.0375
     16 C         142.8311  139.2031  163.0824 C.ar    1  UNL1        0.0023
     17 C         143.6801  138.3770  162.1623 C.ar    1  UNL1        0.0206
     18 C         144.1829  138.9639  160.8766 C.ar    1  UNL1        0.1020
     19 N         143.8367  140.3769  160.5112 N.ar    1  UNL1       -0.2104
     20 C         142.9876  141.2030  161.4314 C.ar    1  UNL1        0.2211
     21 O         142.6414  142.6160  161.0660 O.3     1  UNL1       -0.4563
     22 C         143.1598  143.2091  159.7895 C.3     1  UNL1        0.2542
     23 C         140.3292  141.9989  163.1544 C.3     1  UNL1        0.1163
     24 O         140.8778  143.3899  163.2736 O.3     1  UNL1       -0.3820
     25 H         140.1994  144.0291  163.0050 H       1  UNL1        0.2107
     26 C         139.1022  138.5749  161.5667 C.ar    1  UNL1        0.2272
     27 C         139.6508  139.9659  161.6859 C.ar    1  UNL1        0.0559
     28 C         139.7807  140.6079  163.0353 C.ar    1  UNL1        0.0117
     29 C         139.3620  139.8588  164.2656 C.ar    1  UNL1        0.0559
     30 C         138.8134  138.4678  164.1464 C.ar    1  UNL1        0.2272
     31 N         138.6835  137.8259  162.7970 N.ar    1  UNL1       -0.1767
     32 C         139.7227  138.4926  159.0451 C.3     1  UNL1        0.2542
     33 O         138.9723  137.9330  160.2172 O.3     1  UNL1       -0.4561
     34 O         138.3948  137.7188  165.3768 O.3     1  UNL1       -0.4561
     35 C         137.9169  138.4685  166.5849 C.3     1  UNL1        0.2542
     36 C         139.0226  142.5555  162.6717 C.3     1  UNL1        0.0491
     37 C         138.9675  143.9313  162.0768 C.3     1  UNL1        0.0750
     38 N         139.5405  144.1824  160.7134 N.3     1  UNL1       -0.2702
     39 C         139.3864  143.1525  159.6338 C.3     1  UNL1        0.0897
     40 C         140.2676  145.4633  160.4297 C.3     1  UNL1        0.0897
@<TRIPOS>BOND
     1    32    33    1
     2    33    26    1
     3    26    27   ar
     4    27    28   ar
     5    28    23    1
     6    23    24    1
     7    23    36    1
     8    36    37    1
     9    37    38    1
    10    38    39    1
    11    38    40    1
    12    23     1    1
    13     1    15    1
    14    15    16   ar
    15    16    17   ar
    16    17    18   ar
    17    18    19   ar
    18    19    20   ar
    19    20    21    1
    20    21    22    1
    21     1     2    1
    22     2     3   ar
    23     3     4   ar
    24     4     5   ar
    25     5     6   ar
    26     6     7    1
    27     6     8   ar
    28     8     9   ar
    29     9    10   ar
    30    10    11   ar
    31    11    12   ar
    32    12    13    1
    33    13    14    1
    34    28    29   ar
    35    29    30   ar
    36    30    34    1
    37    34    35    1
    38    30    31   ar
    39    31    26   ar
    40    20    15   ar
    41    12     2   ar
    42    10     4   ar
    43    24    25    1
@<TRIPOS>MOLECULE
*****
 40 43 0 0 0
SMALL
GASTEIGER

@<TRIPOS>ATOM
      1 C         141.7095  141.6220  162.5419 C.3     1  UNL1        0.0822
      2 C         141.3742  141.9535  163.9659 C.ar    1  UNL1        0.0375
      3 C         142.4374  141.8867  165.0218 C.ar    1  UNL1        0.0023
      4 C         142.1022  142.2182  166.4459 C.ar    1  UNL1        0.0181
      5 C         143.1654  142.1513  167.5018 C.ar    1  UNL1        0.0082
      6 C         142.8301  142.4828  168.9257 C.ar    1  UNL1        0.0347
      7 BR        143.8934  142.4160  169.9817 Br      1  UNL1       -0.0490
      8 C         141.4315  142.8811  169.2937 C.ar    1  UNL1        0.0082
      9 C         140.3683  142.9479  168.2378 C.ar    1  UNL1        0.0197
     10 C         140.7036  142.6164  166.8139 C.ar    1  UNL1        0.0844
     11 N         139.6404  142.6833  165.7579 N.ar    1  UNL1       -0.2119
     12 C         139.9757  142.3518  164.3339 C.ar    1  UNL1        0.2211
     13 O         138.9124  142.4186  163.2779 O.3     1  UNL1       -0.4563
     14 C         137.9814  143.5935  163.2243 C.3     1  UNL1        0.2542
     15 C         141.4895  142.6405  161.4630 C.ar    1  UNL1        0.0375
     16 C         140.2913  142.5367  160.5666 C.ar    1  UNL1        0.0023
     17 C         140.0713  143.5553  159.4876 C.ar    1  UNL1        0.0206
     18 C         141.0496  144.6777  159.3051 C.ar    1  UNL1        0.1020
     19 N         142.2478  144.7815  160.2015 N.ar    1  UNL1       -0.2104
     20 C         142.4677  143.7629  161.2804 C.ar    1  UNL1        0.2211
     21 O         143.6660  143.8667  162.1768 O.3     1  UNL1       -0.4563
     22 C         143.7108  144.9129  163.2508 C.3     1  UNL1        0.2542
     23 C         142.2647  140.2719  162.1969 C.3     1  UNL1        0.1163
     24 O         143.6322  140.8712  162.0527 O.3     1  UNL1       -0.3820
     25 H         144.2655  140.1773  161.8112 H       1  UNL1        0.2107
     26 C         139.1452  138.3799  163.7585 C.ar    1  UNL1        0.2272
     27 C         140.5127  138.9791  163.6143 C.ar    1  UNL1        0.0559
     28 C         140.8972  139.6727  162.3411 C.ar    1  UNL1        0.0117
     29 C         139.9142  139.7669  161.2121 C.ar    1  UNL1        0.0559
     30 C         138.5467  139.1676  161.3563 C.ar    1  UNL1        0.2272
     31 N         138.1622  138.4741  162.6295 N.ar    1  UNL1       -0.1767
     32 C         138.1754  138.4729  166.1670 C.3     1  UNL1        0.2542
     33 O         138.7608  137.6863  165.0318 O.3     1  UNL1       -0.4561
     34 O         137.5637  139.2619  160.2271 O.3     1  UNL1       -0.4561
     35 C         137.7995  140.2305  159.1063 C.3     1  UNL1        0.2542
     36 C         142.8200  138.9219  161.8519 C.3     1  UNL1        0.0491
     37 C         143.8475  138.7883  160.7673 C.3     1  UNL1        0.0750
     38 N         143.4666  139.0396  159.3383 N.3     1  UNL1       -0.2702
     39 C         143.8563  140.3264  158.6734 C.3     1  UNL1        0.0897
     40 C         142.6962  138.0039  158.5743 C.3     1  UNL1        0.0897
@<TRIPOS>BOND
     1    32    33    1
     2    33    26    1
     3    26    27   ar
     4    27    28   ar
     5    28    23    1
     6    23    24    1
     7    23    36    1
     8    36    37    1
     9    37    38    1
    10    38    39    1
    11    38    40    1
    12    23     1    1
    13     1    15    1
    14    15    16   ar
    15    16    17   ar
    16    17    18   ar
    17    18    19   ar
    18    19    20   ar
    19    20    21    1
    20    21    22    1
    21     1     2    1
    22     2     3   ar
    23     3     4   ar
    24     4     5   ar
    25     5     6   ar
    26     6     7    1
    27     6     8   ar
    28     8     9   ar
    29     9    10   ar
    30    10    11   ar
    31    11    12   ar
    32    12    13    1
    33    13    14    1
    34    28    29   ar
    35    29    30   ar
    36    30    34    1
    37    34    35    1
    38    30    31   ar
    39    31    26   ar
    40    20    15   ar
    41    12     2   ar
    42    10     4   ar
    43    24    25    1
@<TRIPOS>MOLECULE
*****
 40 43 0 0 0
SMALL
GASTEIGER

@<TRIPOS>ATOM
      1 C         140.4512  141.5826  162.7343 C.3     1  UNL1        0.0822
      2 C         140.4592  141.9515  164.1883 C.ar    1  UNL1        0.0375
      3 C         141.1343  141.0569  165.1853 C.ar    1  UNL1        0.0023
      4 C         141.1423  141.4257  166.6393 C.ar    1  UNL1        0.0181
      5 C         141.8174  140.5311  167.6362 C.ar    1  UNL1        0.0082
      6 C         141.8253  140.8999  169.0901 C.ar    1  UNL1        0.0347
      7 BR        142.5004  140.0053  170.0872 Br      1  UNL1       -0.0490
      8 C         141.1583  142.1633  169.5471 C.ar    1  UNL1        0.0082
      9 C         140.4832  143.0579  168.5501 C.ar    1  UNL1        0.0197
     10 C         140.4752  142.6891  167.0962 C.ar    1  UNL1        0.0844
     11 N         139.8001  143.5837  166.0992 N.ar    1  UNL1       -0.2119
     12 C         139.7921  143.2149  164.6453 C.ar    1  UNL1        0.2211
     13 O         139.1170  144.1095  163.6482 O.3     1  UNL1       -0.4563
     14 C         137.6549  143.9410  163.3588 C.3     1  UNL1        0.2542
     15 C         140.7688  142.6177  161.6963 C.ar    1  UNL1        0.0375
     16 C         139.8572  142.8046  160.5199 C.ar    1  UNL1        0.0023
     17 C         140.1748  143.8397  159.4818 C.ar    1  UNL1        0.0206
     18 C         141.4042  144.6880  159.6201 C.ar    1  UNL1        0.1020
     19 N         142.3159  144.5012  160.7965 N.ar    1  UNL1       -0.2104
     20 C         141.9982  143.4660  161.8346 C.ar    1  UNL1        0.2211
     21 O         142.9098  143.2792  163.0111 O.3     1  UNL1       -0.4563
     22 C         143.3502  144.4667  163.8147 C.3     1  UNL1        0.2542
     23 C         140.1255  140.1787  162.3185 C.3     1  UNL1        0.1163
     24 O         138.7019  140.3827  162.7448 O.3     1  UNL1       -0.3820
     25 H         138.1965  139.5707  162.5832 H       1  UNL1        0.2107
     26 C         143.2892  139.4580  160.0335 C.ar    1  UNL1        0.2272
     27 C         141.8656  139.6620  160.4598 C.ar    1  UNL1        0.0559
     28 C         141.5491  139.9747  161.8922 C.ar    1  UNL1        0.0117
     29 C         142.6563  140.0835  162.8984 C.ar    1  UNL1        0.0559
     30 C         144.0799  139.8796  162.4721 C.ar    1  UNL1        0.2272
     31 N         144.3964  139.5668  161.0396 N.ar    1  UNL1       -0.1767
     32 C         142.6308  138.3639  157.7709 C.3     1  UNL1        0.2542
     33 O         143.6057  139.1452  158.6009 O.3     1  UNL1       -0.4561
     34 O         145.1870  139.9884  163.4783 O.3     1  UNL1       -0.4561
     35 C         145.7238  141.3360  163.8600 C.3     1  UNL1        0.2542
     36 C         139.7999  138.7748  161.9027 C.3     1  UNL1        0.0491
     37 C         139.1067  137.8508  162.8596 C.3     1  UNL1        0.0750
     38 N         139.6262  137.6916  164.2578 N.3     1  UNL1       -0.2702
     39 C         138.7521  138.0377  165.4266 C.3     1  UNL1        0.0897
     40 C         141.0197  137.1863  164.4871 C.3     1  UNL1        0.0897
@<TRIPOS>BOND
     1    32    33    1
     2    33    26    1
     3    26    27   ar
     4    27    28   ar
     5    28    23    1
     6    23    24    1
     7    23    36    1
     8    36    37    1
     9    37    38    1
    10    38    39    1
    11    38    40    1
    12    23     1    1
    13     1    15    1
    14    15    16   ar
    15    16    17   ar
    16    17    18   ar
    17    18    19   ar
    18    19    20   ar
    19    20    21    1
    20    21    22    1
    21     1     2    1
    22     2     3   ar
    23     3     4   ar
    24     4     5   ar
    25     5     6   ar
    26     6     7    1
    27     6     8   ar
    28     8     9   ar
    29     9    10   ar
    30    10    11   ar
    31    11    12   ar
    32    12    13    1
    33    13    14    1
    34    28    29   ar
    35    29    30   ar
    36    30    34    1
    37    34    35    1
    38    30    31   ar
    39    31    26   ar
    40    20    15   ar
    41    12     2   ar
    42    10     4   ar
    43    24    25    1
@<TRIPOS>MOLECULE
*****
 40 43 0 0 0
SMALL
GASTEIGER

@<TRIPOS>ATOM
      1 C         140.4010  141.5865  162.7256 C.3     1  UNL1        0.0822
      2 C         140.4216  141.9559  164.1793 C.ar    1  UNL1        0.0375
      3 C         141.1014  141.0595  165.1714 C.ar    1  UNL1        0.0023
      4 C         141.1221  141.4289  166.6251 C.ar    1  UNL1        0.0181
      5 C         141.8019  140.5324  167.6171 C.ar    1  UNL1        0.0082
      6 C         141.8225  140.9019  169.0707 C.ar    1  UNL1        0.0347
      7 BR        142.5024  140.0054  170.0629 Br      1  UNL1       -0.0490
      8 C         141.1633  142.1677  169.5323 C.ar    1  UNL1        0.0082
      9 C         140.4834  143.0641  168.5403 C.ar    1  UNL1        0.0197
     10 C         140.4628  142.6947  167.0867 C.ar    1  UNL1        0.0844
     11 N         139.7829  143.5911  166.0945 N.ar    1  UNL1       -0.2119
     12 C         139.7623  143.2217  164.6409 C.ar    1  UNL1        0.2211
     13 O         139.0825  144.1182  163.6488 O.3     1  UNL1       -0.4563
     14 C         137.6258  143.9309  163.3439 C.3     1  UNL1        0.2542
     15 C         140.7314  142.6155  161.6855 C.ar    1  UNL1        0.0375
     16 C         139.8262  142.8059  160.5046 C.ar    1  UNL1        0.0023
     17 C         140.1567  143.8349  159.4646 C.ar    1  UNL1        0.0206
     18 C         141.3923  144.6737  159.6053 C.ar    1  UNL1        0.1020
     19 N         142.2974  144.4834  160.7862 N.ar    1  UNL1       -0.2104
     20 C         141.9669  143.4543  161.8264 C.ar    1  UNL1        0.2211
     21 O         142.8721  143.2640  163.0072 O.3     1  UNL1       -0.4563
     22 C         143.8417  144.3423  163.3905 C.3     1  UNL1        0.2542
     23 C         140.0499  140.1880  162.3121 C.3     1  UNL1        0.1163
     24 O         138.6308  140.4176  162.7404 O.3     1  UNL1       -0.3820
     25 H         138.1109  139.6144  162.5806 H       1  UNL1        0.2107
     26 C         143.9960  139.7944  162.4645 C.ar    1  UNL1        0.2272
     27 C         142.5769  140.0240  162.8928 C.ar    1  UNL1        0.0559
     28 C         141.4690  139.9584  161.8838 C.ar    1  UNL1        0.0117
     29 C         141.7802  139.6633  160.4464 C.ar    1  UNL1        0.0559
     30 C         143.1993  139.4337  160.0181 C.ar    1  UNL1        0.2272
     31 N         144.3072  139.4993  161.0271 N.ar    1  UNL1       -0.1767
     32 C         145.6847  141.1866  163.8646 C.3     1  UNL1        0.2542
     33 O         145.1040  139.8600  163.4736 O.3     1  UNL1       -0.4561
     34 O         143.5105  139.1386  158.5806 O.3     1  UNL1       -0.4561
     35 C         142.7352  138.0850  157.8465 C.3     1  UNL1        0.2542
     36 C         139.6989  138.7895  161.8985 C.3     1  UNL1        0.0491
     37 C         139.0631  137.8535  162.8832 C.3     1  UNL1        0.0750
     38 N         139.5891  137.7695  164.2855 N.3     1  UNL1       -0.2702
     39 C         138.7368  138.2204  165.4345 C.3     1  UNL1        0.0897
     40 C         140.9674  137.2345  164.5387 C.3     1  UNL1        0.0897
@<TRIPOS>BOND
     1    32    33    1
     2    33    26    1
     3    26    27   ar
     4    27    28   ar
     5    28    23    1
     6    23    24    1
     7    23    36    1
     8    36    37    1
     9    37    38    1
    10    38    39    1
    11    38    40    1
    12    23     1    1
    13     1    15    1
    14    15    16   ar
    15    16    17   ar
    16    17    18   ar
    17    18    19   ar
    18    19    20   ar
    19    20    21    1
    20    21    22    1
    21     1     2    1
    22     2     3   ar
    23     3     4   ar
    24     4     5   ar
    25     5     6   ar
    26     6     7    1
    27     6     8   ar
    28     8     9   ar
    29     9    10   ar
    30    10    11   ar
    31    11    12   ar
    32    12    13    1
    33    13    14    1
    34    28    29   ar
    35    29    30   ar
    36    30    34    1
    37    34    35    1
    38    30    31   ar
    39    31    26   ar
    40    20    15   ar
    41    12     2   ar
    42    10     4   ar
    43    24    25    1
