@<TRIPOS>MOLECULE
*****
 35 39 0 0 0
SMALL
GASTEIGER

@<TRIPOS>ATOM
      1 C         137.8973  143.1134  162.8652 C.3     1  UNL1        0.1429
      2 O         137.6992  144.5157  162.3711 O.3     1  UNL1       -0.3818
      3 C         137.9755  142.7778  161.4053 C.3     1  UNL1        0.1713
      4 O         138.1969  141.2995  161.2808 O.3     1  UNL1       -0.3497
      5 C         138.2556  140.7214  162.6637 C.3     1  UNL1        0.1614
      6 C         138.4287  139.4505  163.4414 C.3     1  UNL1        0.1143
      7 C         138.3506  139.7862  164.9012 C.3     1  UNL1        0.1604
      8 O         138.1292  141.2645  165.0258 O.3     1  UNL1       -0.3497
      9 C         138.0705  141.8425  163.6429 C.3     1  UNL1        0.1703
     10 H         137.7171  144.5224  161.4012 H       1  UNL1        0.2104
     11 N         138.6425  138.0839  162.8611 N.3     1  UNL1       -0.2908
     12 H         138.7793  138.2080  161.8580 H       1  UNL1        0.1237
     13 C         139.7746  137.2301  163.3503 C.3     1  UNL1        0.0957
     14 C         141.1254  137.8385  163.5856 C.ar    1  UNL1       -0.0064
     15 C         141.9590  138.2868  162.4218 C.ar    1  UNL1       -0.0032
     16 C         143.3098  138.8951  162.6571 C.ar    1  UNL1       -0.0045
     17 C         143.8269  139.0553  164.0561 C.ar    1  UNL1       -0.0219
     18 C         145.1777  139.6636  164.2914 C.3     1  UNL1        0.0310
     19 C         142.9933  138.6070  165.2197 C.ar    1  UNL1       -0.0045
     20 C         141.6425  137.9986  164.9844 C.ar    1  UNL1       -0.0032
     21 C         137.7778  143.7422  164.2217 C.3     1  UNL1        0.0367
     22 C         138.8279  144.7011  164.6991 C.3     1  UNL1        0.0328
     23 C         141.0626  141.9443  167.4660 C.ar    1  UNL1        0.2250
     24 C         142.5131  141.6507  167.2217 C.ar    1  UNL1        0.0593
     25 C         143.2187  142.2761  166.0551 C.ar    1  UNL1        0.0254
     26 C         142.4739  143.1950  165.1328 C.ar    1  UNL1        0.0990
     27 N         143.1795  143.8204  163.9662 N.ar    1  UNL1       -0.2400
     28 C         142.4347  144.7393  163.0439 C.ar    1  UNL1        0.1281
     29 C         140.9841  145.0329  163.2882 C.ar    1  UNL1        0.1566
     30 F         140.2392  145.9519  162.3659 F       1  UNL1       -0.2028
     31 C         140.2784  144.4076  164.4548 C.ar    1  UNL1        0.0261
     32 C         141.0233  143.4886  165.3771 C.ar    1  UNL1        0.1002
     33 N         140.3177  142.8632  166.5437 N.ar    1  UNL1       -0.2104
     34 C         139.5153  140.0938  168.4311 C.3     1  UNL1        0.2542
     35 O         140.3569  141.3189  168.6326 O.3     1  UNL1       -0.4561
@<TRIPOS>BOND
     1    34    35    1
     2    35    23    1
     3    23    24   ar
     4    24    25   ar
     5    25    26   ar
     6    26    27   ar
     7    27    28   ar
     8    28    29   ar
     9    29    30    1
    10    29    31   ar
    11    31    22    1
    12    22    21    1
    13    21     1    1
    14     1     2    1
    15     1     3    1
    16     3     4    1
    17     5     4    1
    18     5     6    1
    19     6    11    1
    20    11    13    1
    21    13    14    1
    22    14    15   ar
    23    15    16   ar
    24    16    17   ar
    25    17    18    1
    26    17    19   ar
    27    19    20   ar
    28     6     7    1
    29     7     8    1
    30     9     8    1
    31    31    32   ar
    32    32    33   ar
    33    33    23   ar
    34    32    26   ar
    35     9     1    1
    36     9     5    1
    37    20    14   ar
    38     2    10    1
    39    11    12    1
@<TRIPOS>MOLECULE
*****
 35 39 0 0 0
SMALL
GASTEIGER

@<TRIPOS>ATOM
      1 C         140.4003  137.7548  163.1908 C.3     1  UNL1        0.1429
      2 O         141.3292  136.6878  162.6922 O.3     1  UNL1       -0.3818
      3 C         140.1033  137.9565  161.7344 C.3     1  UNL1        0.1713
      4 O         139.0936  139.0593  161.6157 O.3     1  UNL1       -0.3497
      5 C         138.7665  139.5392  162.9987 C.3     1  UNL1        0.1614
      6 C         137.9404  140.5174  163.7801 C.3     1  UNL1        0.1143
      7 C         138.2374  140.3157  165.2364 C.3     1  UNL1        0.1604
      8 O         139.2471  139.2128  165.3552 O.3     1  UNL1       -0.3497
      9 C         139.5742  138.7330  163.9722 C.3     1  UNL1        0.1703
     10 H         141.2879  136.6498  161.7238 H       1  UNL1        0.2104
     11 N         136.9849  141.5211  163.2059 N.3     1  UNL1       -0.2908
     12 H         136.4247  141.8722  163.9826 H       1  UNL1        0.1237
     13 C         137.5081  142.7205  162.4725 C.3     1  UNL1        0.0957
     14 C         138.8475  143.2931  162.8306 C.ar    1  UNL1       -0.0064
     15 C         140.0388  143.0136  161.9630 C.ar    1  UNL1       -0.0032
     16 C         141.3782  143.5862  162.3210 C.ar    1  UNL1       -0.0045
     17 C         141.5263  144.4383  163.5466 C.ar    1  UNL1       -0.0219
     18 C         142.8656  145.0109  163.9047 C.3     1  UNL1        0.0310
     19 C         140.3350  144.7178  164.4142 C.ar    1  UNL1       -0.0045
     20 C         138.9955  144.1451  164.0561 C.ar    1  UNL1       -0.0032
     21 C         140.8915  137.3300  164.5430 C.3     1  UNL1        0.0367
     22 C         142.3231  137.5603  164.9273 C.3     1  UNL1        0.0328
     23 C         141.8049  140.7955  168.0118 C.ar    1  UNL1        0.2250
     24 C         142.4314  142.1417  167.7992 C.ar    1  UNL1        0.0593
     25 C         143.2305  142.4095  166.5584 C.ar    1  UNL1        0.0254
     26 C         143.4033  141.3311  165.5302 C.ar    1  UNL1        0.0990
     27 N         144.2025  141.5990  164.2894 N.ar    1  UNL1       -0.2400
     28 C         144.3752  140.5206  163.2613 C.ar    1  UNL1        0.1281
     29 C         143.7487  139.1743  163.4739 C.ar    1  UNL1        0.1566
     30 F         143.9215  138.0959  162.4457 F       1  UNL1       -0.2028
     31 C         142.9495  138.9065  164.7147 C.ar    1  UNL1        0.0261
     32 C         142.7768  139.9849  165.7429 C.ar    1  UNL1        0.1002
     33 N         141.9776  139.7171  166.9837 N.ar    1  UNL1       -0.2104
     34 C         139.5206  140.3380  169.1618 C.3     1  UNL1        0.2542
     35 O         141.0057  140.5277  169.2526 O.3     1  UNL1       -0.4561
@<TRIPOS>BOND
     1    34    35    1
     2    35    23    1
     3    23    24   ar
     4    24    25   ar
     5    25    26   ar
     6    26    27   ar
     7    27    28   ar
     8    28    29   ar
     9    29    30    1
    10    29    31   ar
    11    31    22    1
    12    22    21    1
    13    21     1    1
    14     1     2    1
    15     1     3    1
    16     3     4    1
    17     5     4    1
    18     5     6    1
    19     6    11    1
    20    11    13    1
    21    13    14    1
    22    14    15   ar
    23    15    16   ar
    24    16    17   ar
    25    17    18    1
    26    17    19   ar
    27    19    20   ar
    28     6     7    1
    29     7     8    1
    30     9     8    1
    31    31    32   ar
    32    32    33   ar
    33    33    23   ar
    34    32    26   ar
    35     9     1    1
    36     9     5    1
    37    20    14   ar
    38     2    10    1
    39    11    12    1
@<TRIPOS>MOLECULE
*****
 35 39 0 0 0
SMALL
GASTEIGER

@<TRIPOS>ATOM
      1 C         138.4625  143.1636  163.7717 C.3     1  UNL1        0.1429
      2 O         137.3170  142.7813  164.6616 O.3     1  UNL1       -0.3818
      3 C         138.9880  143.8401  165.0031 C.3     1  UNL1        0.1713
      4 O         140.2982  144.4823  164.6557 O.3     1  UNL1       -0.3497
      5 C         140.5826  144.2028  163.2097 C.3     1  UNL1        0.1614
      6 C         141.5681  144.4269  162.1014 C.3     1  UNL1        0.1143
      7 C         141.0426  143.7505  160.8700 C.3     1  UNL1        0.1604
      8 O         139.7323  143.1082  161.2174 O.3     1  UNL1       -0.3497
      9 C         139.4480  143.3878  162.6634 C.3     1  UNL1        0.1703
     10 H         137.4656  143.1381  165.5512 H       1  UNL1        0.2104
     11 N         142.8534  145.1930  162.2060 N.3     1  UNL1       -0.2908
     12 H         142.6024  146.1745  162.3247 H       1  UNL1        0.1237
     13 C         143.8369  144.8635  163.2895 C.3     1  UNL1        0.0957
     14 C         144.1247  143.4315  163.6310 C.ar    1  UNL1       -0.0064
     15 C         144.9576  142.5930  162.7073 C.ar    1  UNL1       -0.0032
     16 C         145.2454  141.1610  163.0488 C.ar    1  UNL1       -0.0045
     17 C         144.7002  140.5675  164.3140 C.ar    1  UNL1       -0.0219
     18 C         144.9880  139.1355  164.6555 C.3     1  UNL1        0.0310
     19 C         143.8674  141.4060  165.2376 C.ar    1  UNL1       -0.0045
     20 C         143.5796  142.8381  164.8961 C.ar    1  UNL1       -0.0032
     21 C         137.6976  142.4072  162.7264 C.3     1  UNL1        0.0367
     22 C         137.3009  140.9816  162.9720 C.3     1  UNL1        0.0328
     23 C         140.4901  139.7468  165.8967 C.ar    1  UNL1        0.2250
     24 C         141.4355  138.6349  165.5503 C.ar    1  UNL1        0.0593
     25 C         141.3178  137.9347  164.2290 C.ar    1  UNL1        0.0254
     26 C         140.2548  138.3463  163.2541 C.ar    1  UNL1        0.0990
     27 N         140.1371  137.6460  161.9329 N.ar    1  UNL1       -0.2400
     28 C         139.0740  138.0576  160.9580 C.ar    1  UNL1        0.1281
     29 C         138.1286  139.1695  161.3043 C.ar    1  UNL1        0.1566
     30 F         137.0655  139.5811  160.3294 F       1  UNL1       -0.2028
     31 C         138.2463  139.8697  162.6256 C.ar    1  UNL1        0.0261
     32 C         139.3094  139.4581  163.6005 C.ar    1  UNL1        0.1002
     33 N         139.4271  140.1584  164.9218 N.ar    1  UNL1       -0.2104
     34 C         141.5713  139.9425  168.2510 C.3     1  UNL1        0.2542
     35 O         140.6078  140.4470  167.2180 O.3     1  UNL1       -0.4561
@<TRIPOS>BOND
     1    34    35    1
     2    35    23    1
     3    23    24   ar
     4    24    25   ar
     5    25    26   ar
     6    26    27   ar
     7    27    28   ar
     8    28    29   ar
     9    29    30    1
    10    29    31   ar
    11    31    22    1
    12    22    21    1
    13    21     1    1
    14     1     2    1
    15     1     3    1
    16     3     4    1
    17     5     4    1
    18     5     6    1
    19     6    11    1
    20    11    13    1
    21    13    14    1
    22    14    15   ar
    23    15    16   ar
    24    16    17   ar
    25    17    18    1
    26    17    19   ar
    27    19    20   ar
    28     6     7    1
    29     7     8    1
    30     9     8    1
    31    31    32   ar
    32    32    33   ar
    33    33    23   ar
    34    32    26   ar
    35     9     1    1
    36     9     5    1
    37    20    14   ar
    38     2    10    1
    39    11    12    1
@<TRIPOS>MOLECULE
*****
 35 39 0 0 0
SMALL
GASTEIGER

@<TRIPOS>ATOM
      1 C         140.4137  137.7787  163.3153 C.3     1  UNL1        0.1429
      2 O         139.1225  137.2769  162.7401 O.3     1  UNL1       -0.3818
      3 C         140.8490  137.8342  161.8809 C.3     1  UNL1        0.1713
      4 O         142.2618  138.3367  161.8444 O.3     1  UNL1       -0.3497
      5 C         142.6997  138.5919  163.2561 C.3     1  UNL1        0.1614
      6 C         143.8435  139.0602  164.1061 C.3     1  UNL1        0.1143
      7 C         143.4082  139.0048  165.5404 C.3     1  UNL1        0.1604
      8 O         141.9953  138.5022  165.5770 O.3     1  UNL1       -0.3497
      9 C         141.5575  138.2470  164.1652 C.3     1  UNL1        0.1703
     10 H         139.1937  137.2349  161.7736 H       1  UNL1        0.2104
     11 N         145.1868  139.5057  163.6090 N.3     1  UNL1       -0.2908
     12 H         145.1876  139.3670  162.5985 H       1  UNL1        0.1237
     13 C         145.6483  140.9119  163.8534 C.3     1  UNL1        0.0957
     14 C         144.6720  142.0474  163.7670 C.ar    1  UNL1       -0.0064
     15 C         144.0568  142.4087  162.4475 C.ar    1  UNL1       -0.0032
     16 C         143.0805  143.5442  162.3611 C.ar    1  UNL1       -0.0045
     17 C         142.7194  144.3184  163.5940 C.ar    1  UNL1       -0.0219
     18 C         141.7431  145.4539  163.5076 C.3     1  UNL1        0.0310
     19 C         143.3346  143.9571  164.9135 C.ar    1  UNL1       -0.0045
     20 C         144.3110  142.8215  164.9999 C.ar    1  UNL1       -0.0032
     21 C         139.7085  137.6184  164.6294 C.3     1  UNL1        0.0367
     22 C         138.5533  138.5109  164.9744 C.3     1  UNL1        0.0328
     23 C         140.5219  141.2503  167.9527 C.ar    1  UNL1        0.2250
     24 C         140.6034  142.7226  167.6778 C.ar    1  UNL1        0.0593
     25 C         140.0287  143.2818  166.4101 C.ar    1  UNL1        0.0254
     26 C         139.3725  142.3687  165.4173 C.ar    1  UNL1        0.0990
     27 N         138.7978  142.9279  164.1497 N.ar    1  UNL1       -0.2400
     28 C         138.1416  142.0148  163.1569 C.ar    1  UNL1        0.1281
     29 C         138.0601  140.5424  163.4318 C.ar    1  UNL1        0.1566
     30 F         137.4039  139.6293  162.4391 F       1  UNL1       -0.2028
     31 C         138.6348  139.9832  164.6995 C.ar    1  UNL1        0.0261
     32 C         139.2910  140.8964  165.6923 C.ar    1  UNL1        0.1002
     33 N         139.8657  140.3372  166.9599 N.ar    1  UNL1       -0.2104
     34 C         142.1323  139.6078  169.1604 C.3     1  UNL1        0.2542
     35 O         141.0966  140.6911  169.2204 O.3     1  UNL1       -0.4561
@<TRIPOS>BOND
     1    34    35    1
     2    35    23    1
     3    23    24   ar
     4    24    25   ar
     5    25    26   ar
     6    26    27   ar
     7    27    28   ar
     8    28    29   ar
     9    29    30    1
    10    29    31   ar
    11    31    22    1
    12    22    21    1
    13    21     1    1
    14     1     2    1
    15     1     3    1
    16     3     4    1
    17     5     4    1
    18     5     6    1
    19     6    11    1
    20    11    13    1
    21    13    14    1
    22    14    15   ar
    23    15    16   ar
    24    16    17   ar
    25    17    18    1
    26    17    19   ar
    27    19    20   ar
    28     6     7    1
    29     7     8    1
    30     9     8    1
    31    31    32   ar
    32    32    33   ar
    33    33    23   ar
    34    32    26   ar
    35     9     1    1
    36     9     5    1
    37    20    14   ar
    38     2    10    1
    39    11    12    1
@<TRIPOS>MOLECULE
*****
 35 39 0 0 0
SMALL
GASTEIGER

@<TRIPOS>ATOM
      1 C         142.1385  144.5532  162.7897 C.3     1  UNL1        0.1429
      2 O         143.3719  145.0745  162.1137 O.3     1  UNL1       -0.3818
      3 C         141.6150  144.4274  161.3897 C.3     1  UNL1        0.1713
      4 O         140.2215  143.8774  161.4636 O.3     1  UNL1       -0.3497
      5 C         139.8836  143.6633  162.9093 C.3     1  UNL1        0.1614
      6 C         138.8136  143.1911  163.8484 C.3     1  UNL1        0.1143
      7 C         139.3371  143.3170  165.2484 C.3     1  UNL1        0.1604
      8 O         140.7307  143.8670  165.1746 O.3     1  UNL1       -0.3497
      9 C         141.0685  144.0810  163.7289 C.3     1  UNL1        0.1703
     10 H         143.2378  145.0763  161.1530 H       1  UNL1        0.2104
     11 N         137.4581  142.6824  163.4564 N.3     1  UNL1       -0.2908
     12 H         137.0955  143.3238  162.7510 H       1  UNL1        0.1237
     13 C         137.3088  141.2975  162.9000 C.3     1  UNL1        0.0957
     14 C         138.2701  140.2193  163.3041 C.ar    1  UNL1       -0.0064
     15 C         138.2670  139.7007  164.7117 C.ar    1  UNL1       -0.0032
     16 C         139.2283  138.6225  165.1158 C.ar    1  UNL1       -0.0045
     17 C         140.1927  138.0628  164.1125 C.ar    1  UNL1       -0.0219
     18 C         141.1541  136.9846  164.5166 C.3     1  UNL1        0.0310
     19 C         140.1958  138.5813  162.7050 C.ar    1  UNL1       -0.0045
     20 C         139.2345  139.6596  162.3008 C.ar    1  UNL1       -0.0032
     21 C         142.9198  144.7880  164.0484 C.3     1  UNL1        0.0367
     22 C         144.1564  143.9850  164.3244 C.3     1  UNL1        0.0328
     23 C         142.5633  141.5268  167.7404 C.ar    1  UNL1        0.2250
     24 C         142.5255  140.0311  167.6344 C.ar    1  UNL1        0.0593
     25 C         143.0187  139.3547  166.3897 C.ar    1  UNL1        0.0254
     26 C         143.5498  140.1741  165.2510 C.ar    1  UNL1        0.0990
     27 N         144.0430  139.4977  164.0063 N.ar    1  UNL1       -0.2400
     28 C         144.5740  140.3171  162.8677 C.ar    1  UNL1        0.1281
     29 C         144.6118  141.8129  162.9737 C.ar    1  UNL1        0.1566
     30 F         145.1428  142.6323  161.8350 F       1  UNL1       -0.2028
     31 C         144.1186  142.4893  164.2184 C.ar    1  UNL1        0.0261
     32 C         143.5876  141.6698  165.3571 C.ar    1  UNL1        0.1002
     33 N         143.0944  142.3462  166.6018 N.ar    1  UNL1       -0.2104
     34 C         140.7615  142.9360  168.9722 C.3     1  UNL1        0.2542
     35 O         142.0701  142.2031  168.9851 O.3     1  UNL1       -0.4561
@<TRIPOS>BOND
     1    34    35    1
     2    35    23    1
     3    23    24   ar
     4    24    25   ar
     5    25    26   ar
     6    26    27   ar
     7    27    28   ar
     8    28    29   ar
     9    29    30    1
    10    29    31   ar
    11    31    22    1
    12    22    21    1
    13    21     1    1
    14     1     2    1
    15     1     3    1
    16     3     4    1
    17     5     4    1
    18     5     6    1
    19     6    11    1
    20    11    13    1
    21    13    14    1
    22    14    15   ar
    23    15    16   ar
    24    16    17   ar
    25    17    18    1
    26    17    19   ar
    27    19    20   ar
    28     6     7    1
    29     7     8    1
    30     9     8    1
    31    31    32   ar
    32    32    33   ar
    33    33    23   ar
    34    32    26   ar
    35     9     1    1
    36     9     5    1
    37    20    14   ar
    38     2    10    1
    39    11    12    1
@<TRIPOS>MOLECULE
*****
 35 39 0 0 0
SMALL
GASTEIGER

@<TRIPOS>ATOM
      1 C         139.0686  140.8984  165.9640 C.3     1  UNL1        0.1429
      2 O         139.2706  139.8586  167.0261 O.3     1  UNL1       -0.3818
      3 C         140.0059  141.7133  166.8050 C.3     1  UNL1        0.1713
      4 O         140.1960  143.0410  166.1333 O.3     1  UNL1       -0.3497
      5 C         139.3763  143.0466  164.8772 C.3     1  UNL1        0.1614
      6 C         138.9872  143.8705  163.6857 C.3     1  UNL1        0.1143
      7 C         138.0499  143.0556  162.8447 C.3     1  UNL1        0.1604
      8 O         137.8597  141.7279  163.5164 O.3     1  UNL1       -0.3497
      9 C         138.6795  141.7223  164.7725 C.3     1  UNL1        0.1703
     10 H         139.8758  140.2007  167.7025 H       1  UNL1        0.2104
     11 N         139.4534  145.2647  163.3875 N.3     1  UNL1       -0.2908
     12 H         139.5849  145.7296  164.2858 H       1  UNL1        0.1237
     13 C         140.7107  145.4825  162.5991 C.3     1  UNL1        0.0957
     14 C         141.9192  144.6348  162.8653 C.ar    1  UNL1       -0.0064
     15 C         142.2163  143.4555  161.9871 C.ar    1  UNL1       -0.0032
     16 C         143.4248  142.6078  162.2533 C.ar    1  UNL1       -0.0045
     17 C         144.3363  142.9393  163.3976 C.ar    1  UNL1       -0.0219
     18 C         145.5448  142.0916  163.6638 C.3     1  UNL1        0.0310
     19 C         144.0392  144.1185  164.2757 C.ar    1  UNL1       -0.0045
     20 C         142.8306  144.9663  164.0095 C.ar    1  UNL1       -0.0032
     21 C         138.1736  139.8661  165.3450 C.3     1  UNL1        0.0367
     22 C         138.7583  138.5981  164.7967 C.3     1  UNL1        0.0328
     23 C         143.0696  138.7602  166.0758 C.ar    1  UNL1        0.2250
     24 C         144.1563  138.8204  165.0437 C.ar    1  UNL1        0.0593
     25 C         143.8060  138.8266  163.5852 C.ar    1  UNL1        0.0254
     26 C         142.3689  138.7725  163.1588 C.ar    1  UNL1        0.0990
     27 N         142.0186  138.7787  161.7003 N.ar    1  UNL1       -0.2400
     28 C         140.5815  138.7246  161.2739 C.ar    1  UNL1        0.1281
     29 C         139.4947  138.6645  162.3061 C.ar    1  UNL1        0.1566
     30 F         138.0576  138.6104  161.8797 F       1  UNL1       -0.2028
     31 C         139.8450  138.6583  163.7646 C.ar    1  UNL1        0.0261
     32 C         141.2822  138.7124  164.1909 C.ar    1  UNL1        0.1002
     33 N         141.6325  138.7062  165.6494 N.ar    1  UNL1       -0.2104
     34 C         142.5856  139.5308  168.5093 C.3     1  UNL1        0.2542
     35 O         143.4199  138.7541  167.5343 O.3     1  UNL1       -0.4561
@<TRIPOS>BOND
     1    34    35    1
     2    35    23    1
     3    23    24   ar
     4    24    25   ar
     5    25    26   ar
     6    26    27   ar
     7    27    28   ar
     8    28    29   ar
     9    29    30    1
    10    29    31   ar
    11    31    22    1
    12    22    21    1
    13    21     1    1
    14     1     2    1
    15     1     3    1
    16     3     4    1
    17     5     4    1
    18     5     6    1
    19     6    11    1
    20    11    13    1
    21    13    14    1
    22    14    15   ar
    23    15    16   ar
    24    16    17   ar
    25    17    18    1
    26    17    19   ar
    27    19    20   ar
    28     6     7    1
    29     7     8    1
    30     9     8    1
    31    31    32   ar
    32    32    33   ar
    33    33    23   ar
    34    32    26   ar
    35     9     1    1
    36     9     5    1
    37    20    14   ar
    38     2    10    1
    39    11    12    1
@<TRIPOS>MOLECULE
*****
 35 39 0 0 0
SMALL
GASTEIGER

@<TRIPOS>ATOM
      1 C         140.5530  144.6769  162.4136 C.3     1  UNL1        0.1429
      2 O         139.2688  145.2087  161.8498 O.3     1  UNL1       -0.3818
      3 C         140.8677  144.3609  160.9814 C.3     1  UNL1        0.1713
      4 O         142.2245  143.7231  160.9349 O.3     1  UNL1       -0.3497
      5 C         142.7484  143.6449  162.3382 C.3     1  UNL1        0.1614
      6 C         143.9107  143.2024  163.1768 C.3     1  UNL1        0.1143
      7 C         143.5960  143.5185  164.6090 C.3     1  UNL1        0.1604
      8 O         142.2391  144.1564  164.6555 O.3     1  UNL1       -0.3497
      9 C         141.7153  144.2345  163.2521 C.3     1  UNL1        0.1703
     10 H         139.2672  145.0955  160.8864 H       1  UNL1        0.2104
     11 N         145.1672  142.5572  162.6719 N.3     1  UNL1       -0.2908
     12 H         145.9397  143.1666  162.9408 H       1  UNL1        0.1237
     13 C         145.5316  141.1728  163.1199 C.3     1  UNL1        0.0957
     14 C         144.4537  140.1836  163.4510 C.ar    1  UNL1       -0.0064
     15 C         144.1571  139.8488  164.8828 C.ar    1  UNL1       -0.0032
     16 C         143.0792  138.8596  165.2139 C.ar    1  UNL1       -0.0045
     17 C         142.2979  138.2052  164.1132 C.ar    1  UNL1       -0.0219
     18 C         141.2200  137.2160  164.4443 C.3     1  UNL1        0.0310
     19 C         142.5945  138.5400  162.6815 C.ar    1  UNL1       -0.0045
     20 C         143.6725  139.5293  162.3504 C.ar    1  UNL1       -0.0032
     21 C         139.9698  145.1042  163.7278 C.3     1  UNL1        0.0367
     22 C         138.7331  144.4365  164.2521 C.3     1  UNL1        0.0328
     23 C         140.5682  142.1853  167.6894 C.ar    1  UNL1        0.2250
     24 C         140.4859  140.6883  167.7347 C.ar    1  UNL1        0.0593
     25 C         139.7920  139.9416  166.6342 C.ar    1  UNL1        0.0254
     26 C         139.1803  140.6920  165.4885 C.ar    1  UNL1        0.0990
     27 N         138.4864  139.9453  164.3880 N.ar    1  UNL1       -0.2400
     28 C         137.8748  140.6957  163.2423 C.ar    1  UNL1        0.1281
     29 C         137.9570  142.1928  163.1970 C.ar    1  UNL1        0.1566
     30 F         137.3453  142.9431  162.0512 F       1  UNL1       -0.2028
     31 C         138.6509  142.9394  164.2974 C.ar    1  UNL1        0.0261
     32 C         139.2626  142.1890  165.4432 C.ar    1  UNL1        0.1002
     33 N         139.9565  142.9357  166.5436 N.ar    1  UNL1       -0.2104
     34 C         140.4608  143.7248  169.7795 C.3     1  UNL1        0.2542
     35 O         141.2621  142.9320  168.7898 O.3     1  UNL1       -0.4561
@<TRIPOS>BOND
     1    34    35    1
     2    35    23    1
     3    23    24   ar
     4    24    25   ar
     5    25    26   ar
     6    26    27   ar
     7    27    28   ar
     8    28    29   ar
     9    29    30    1
    10    29    31   ar
    11    31    22    1
    12    22    21    1
    13    21     1    1
    14     1     2    1
    15     1     3    1
    16     3     4    1
    17     5     4    1
    18     5     6    1
    19     6    11    1
    20    11    13    1
    21    13    14    1
    22    14    15   ar
    23    15    16   ar
    24    16    17   ar
    25    17    18    1
    26    17    19   ar
    27    19    20   ar
    28     6     7    1
    29     7     8    1
    30     9     8    1
    31    31    32   ar
    32    32    33   ar
    33    33    23   ar
    34    32    26   ar
    35     9     1    1
    36     9     5    1
    37    20    14   ar
    38     2    10    1
    39    11    12    1
@<TRIPOS>MOLECULE
*****
 35 39 0 0 0
SMALL
GASTEIGER

@<TRIPOS>ATOM
      1 C         144.1154  143.6308  163.8873 C.3     1  UNL1        0.1429
      2 O         144.3071  144.7010  164.9207 O.3     1  UNL1       -0.3818
      3 C         144.9670  142.8085  164.8085 C.3     1  UNL1        0.1713
      4 O         145.1320  141.4488  164.1969 O.3     1  UNL1       -0.3497
      5 C         144.3823  141.4307  162.8979 C.3     1  UNL1        0.1614
      6 C         144.0209  140.5792  161.7171 C.3     1  UNL1        0.1143
      7 C         143.1693  141.4014  160.7959 C.3     1  UNL1        0.1604
      8 O         143.0043  142.7612  161.4074 O.3     1  UNL1       -0.3497
      9 C         143.7540  142.7792  162.7065 C.3     1  UNL1        0.1703
     10 H         144.8582  144.3590  165.6419 H       1  UNL1        0.2104
     11 N         144.4379  139.1553  161.4962 N.3     1  UNL1       -0.2908
     12 H         145.0032  138.8858  162.3013 H       1  UNL1        0.1237
     13 C         143.3986  138.0882  161.3201 C.3     1  UNL1        0.0957
     14 C         142.2582  137.9848  162.2889 C.ar    1  UNL1       -0.0064
     15 C         140.8528  137.8516  161.7815 C.ar    1  UNL1       -0.0032
     16 C         139.7123  137.7483  162.7503 C.ar    1  UNL1       -0.0045
     17 C         139.9771  137.7781  164.2265 C.ar    1  UNL1       -0.0219
     18 C         138.8366  137.6747  165.1953 C.3     1  UNL1        0.0310
     19 C         141.3824  137.9113  164.7338 C.ar    1  UNL1       -0.0045
     20 C         142.5229  138.0147  163.7649 C.ar    1  UNL1       -0.0032
     21 C         143.3038  144.6768  163.1822 C.3     1  UNL1        0.0367
     22 C         142.1135  145.2866  163.8614 C.3     1  UNL1        0.0328
     23 C         141.3118  141.7155  166.4794 C.ar    1  UNL1        0.2250
     24 C         139.9806  141.0267  166.4213 C.ar    1  UNL1        0.0593
     25 C         138.9166  141.5282  165.4905 C.ar    1  UNL1        0.0254
     26 C         139.1838  142.7186  164.6179 C.ar    1  UNL1        0.0990
     27 N         138.1198  143.2202  163.6871 N.ar    1  UNL1       -0.2400
     28 C         138.3870  144.4105  162.8144 C.ar    1  UNL1        0.1281
     29 C         139.7183  145.0994  162.8725 C.ar    1  UNL1        0.1566
     30 F         139.9855  146.2898  161.9998 F       1  UNL1       -0.2028
     31 C         140.7823  144.5978  163.8033 C.ar    1  UNL1        0.0261
     32 C         140.5150  143.4074  164.6760 C.ar    1  UNL1        0.1002
     33 N         141.5790  142.9058  165.6068 N.ar    1  UNL1       -0.2104
     34 C         142.5119  139.7430  167.6708 C.3     1  UNL1        0.2542
     35 O         142.3758  141.2139  167.4102 O.3     1  UNL1       -0.4561
@<TRIPOS>BOND
     1    34    35    1
     2    35    23    1
     3    23    24   ar
     4    24    25   ar
     5    25    26   ar
     6    26    27   ar
     7    27    28   ar
     8    28    29   ar
     9    29    30    1
    10    29    31   ar
    11    31    22    1
    12    22    21    1
    13    21     1    1
    14     1     2    1
    15     1     3    1
    16     3     4    1
    17     5     4    1
    18     5     6    1
    19     6    11    1
    20    11    13    1
    21    13    14    1
    22    14    15   ar
    23    15    16   ar
    24    16    17   ar
    25    17    18    1
    26    17    19   ar
    27    19    20   ar
    28     6     7    1
    29     7     8    1
    30     9     8    1
    31    31    32   ar
    32    32    33   ar
    33    33    23   ar
    34    32    26   ar
    35     9     1    1
    36     9     5    1
    37    20    14   ar
    38     2    10    1
    39    11    12    1
@<TRIPOS>MOLECULE
*****
 35 39 0 0 0
SMALL
GASTEIGER

@<TRIPOS>ATOM
      1 C         142.1855  137.9618  163.1691 C.3     1  UNL1        0.1429
      2 O         141.2897  136.7892  162.8999 O.3     1  UNL1       -0.3818
      3 C         142.5121  137.8468  161.7096 C.3     1  UNL1        0.1713
      4 O         143.5023  138.9211  161.3702 O.3     1  UNL1       -0.3497
      5 C         143.7877  139.7002  162.6198 C.3     1  UNL1        0.1614
      6 C         144.5760  140.8456  163.1824 C.3     1  UNL1        0.1143
      7 C         144.2494  140.9607  164.6418 C.3     1  UNL1        0.1604
      8 O         143.2591  139.8863  164.9813 O.3     1  UNL1       -0.3497
      9 C         142.9738  139.1073  163.7317 C.3     1  UNL1        0.1703
     10 H         141.3542  136.5410  161.9645 H       1  UNL1        0.2104
     11 N         145.5244  141.7222  162.4194 N.3     1  UNL1       -0.2908
     12 H         146.1692  141.1020  161.9295 H       1  UNL1        0.1237
     13 C         144.9975  142.6902  161.4020 C.3     1  UNL1        0.0957
     14 C         143.7364  143.4546  161.6768 C.ar    1  UNL1       -0.0064
     15 C         143.6282  144.3055  162.9074 C.ar    1  UNL1       -0.0032
     16 C         142.3671  145.0698  163.1821 C.ar    1  UNL1       -0.0045
     17 C         141.2143  144.9833  162.2263 C.ar    1  UNL1       -0.0219
     18 C         139.9532  145.7476  162.5011 C.3     1  UNL1        0.0310
     19 C         141.3225  144.1324  160.9958 C.ar    1  UNL1       -0.0045
     20 C         142.5837  143.3680  160.7210 C.ar    1  UNL1       -0.0032
     21 C         141.6716  137.8317  164.5723 C.3     1  UNL1        0.0367
     22 C         140.2087  138.0064  164.8545 C.3     1  UNL1        0.0328
     23 C         140.6372  142.1461  166.5660 C.ar    1  UNL1        0.2250
     24 C         139.8870  143.2919  165.9543 C.ar    1  UNL1        0.0593
     25 C         138.9939  143.0579  164.7721 C.ar    1  UNL1        0.0254
     26 C         138.8510  141.6780  164.2016 C.ar    1  UNL1        0.0990
     27 N         137.9579  141.4439  163.0194 N.ar    1  UNL1       -0.2400
     28 C         137.8151  140.0640  162.4489 C.ar    1  UNL1        0.1281
     29 C         138.5654  138.9182  163.0606 C.ar    1  UNL1        0.1566
     30 F         138.4225  137.5383  162.4901 F       1  UNL1       -0.2028
     31 C         139.4585  139.1522  164.2428 C.ar    1  UNL1        0.0261
     32 C         139.6013  140.5322  164.8133 C.ar    1  UNL1        0.1002
     33 N         140.4944  140.7663  165.9955 N.ar    1  UNL1       -0.2104
     34 C         140.9435  142.8251  169.0550 C.3     1  UNL1        0.2542
     35 O         141.5303  142.3802  167.7482 O.3     1  UNL1       -0.4561
@<TRIPOS>BOND
     1    34    35    1
     2    35    23    1
     3    23    24   ar
     4    24    25   ar
     5    25    26   ar
     6    26    27   ar
     7    27    28   ar
     8    28    29   ar
     9    29    30    1
    10    29    31   ar
    11    31    22    1
    12    22    21    1
    13    21     1    1
    14     1     2    1
    15     1     3    1
    16     3     4    1
    17     5     4    1
    18     5     6    1
    19     6    11    1
    20    11    13    1
    21    13    14    1
    22    14    15   ar
    23    15    16   ar
    24    16    17   ar
    25    17    18    1
    26    17    19   ar
    27    19    20   ar
    28     6     7    1
    29     7     8    1
    30     9     8    1
    31    31    32   ar
    32    32    33   ar
    33    33    23   ar
    34    32    26   ar
    35     9     1    1
    36     9     5    1
    37    20    14   ar
    38     2    10    1
    39    11    12    1
