@<TRIPOS>MOLECULE
*****
 35 39 0 0 0
SMALL
GASTEIGER

@<TRIPOS>ATOM
      1 C         143.2610  141.0077  164.1961 C.2     1  UNL1        0.2260
      2 O         144.2052  142.1727  164.1666 O.2     1  UNL1       -0.2748
      3 N         142.2983  140.7936  163.0658 N.am    1  UNL1       -0.2839
      4 H         141.6786  140.0289  163.0851 H       1  UNL1        0.1549
      5 C         142.2800  141.7446  161.9059 C.ar    1  UNL1        0.0505
      6 C         141.3233  142.9000  161.8985 C.ar    1  UNL1        0.0155
      7 C         141.3050  143.8511  160.7387 C.ar    1  UNL1        0.0128
      8 C         142.2434  143.6467  159.5863 C.ar    1  UNL1        0.0606
      9 CL        142.2250  144.5978  158.4265 Cl      1  UNL1       -0.0821
     10 C         143.1999  142.4914  159.5938 C.ar    1  UNL1        0.0459
     11 C         143.2183  141.5404  160.7536 C.ar    1  UNL1        0.0185
     12 C         144.1382  142.2871  158.4415 C.ar    1  UNL1        0.1447
     13 N         145.5719  142.7243  158.3837 N.ar    1  UNL1       -0.2268
     14 C         146.1274  142.3172  157.0511 C.ar    1  UNL1        0.0987
     15 C         147.4851  142.4847  156.4361 C.ar    1  UNL1        0.0206
     16 C         147.7525  141.9634  155.0552 C.ar    1  UNL1        0.0016
     17 C         146.6620  141.2746  154.2894 C.ar    1  UNL1        0.0016
     18 C         145.3042  141.1071  154.9045 C.ar    1  UNL1        0.0188
     19 C         145.0368  141.6284  156.2854 C.ar    1  UNL1        0.0789
     20 N         143.8075  141.6098  157.1447 N.ar    1  UNL1       -0.3094
     21 C         142.4805  141.0178  156.7724 C.3     1  UNL1        0.1319
     22 C         143.2793  140.0566  165.3559 C.3     1  UNL1        0.0823
     23 C         144.3061  138.9647  165.4143 C.3     1  UNL1        0.0100
     24 C         138.7657  137.6709  163.5709 C.3     1  UNL1        0.0521
     25 C         139.1378  138.3729  164.8432 C.ar    1  UNL1        0.0589
     26 C         138.1293  138.5137  165.9446 C.ar    1  UNL1        0.0144
     27 C         138.5013  139.2158  167.2169 C.ar    1  UNL1       -0.0019
     28 C         139.8818  139.7770  167.3878 C.ar    1  UNL1       -0.0089
     29 C         140.8902  139.6362  166.2864 C.ar    1  UNL1        0.0547
     30 N         140.5182  138.9341  165.0141 N.ar    1  UNL1       -0.2543
     31 C         142.2708  140.1974  166.4573 C.3     1  UNL1        0.0485
     32 C         142.6428  140.8995  167.7296 C.3     1  UNL1        0.0067
     33 C         141.6343  141.0403  168.8310 C.3     1  UNL1        0.0048
     34 C         140.2538  140.4791  168.6601 C.3     1  UNL1        0.0235
     35 C         139.2453  140.6199  169.7615 C.3     1  UNL1        0.0047
@<TRIPOS>BOND
     1    24    25    1
     2    25    26   ar
     3    26    27   ar
     4    27    28   ar
     5    28    29   ar
     6    29    30   ar
     7    29    31    1
     8    31    22    1
     9    22    23    1
    10    22     1    1
    11     1     2    2
    12     1     3   am
    13     3     5    1
    14     5     6   ar
    15     6     7   ar
    16     7     8   ar
    17     8     9    1
    18     8    10   ar
    19    10    12    1
    20    12    13   ar
    21    13    14   ar
    22    14    15   ar
    23    15    16   ar
    24    16    17   ar
    25    17    18   ar
    26    18    19   ar
    27    19    20   ar
    28    20    21    1
    29    10    11   ar
    30    31    32    1
    31    32    33    1
    32    33    34    1
    33    34    35    1
    34    30    25   ar
    35    11     5   ar
    36    34    28    1
    37    20    12   ar
    38    19    14   ar
    39     3     4    1
@<TRIPOS>MOLECULE
*****
 35 39 0 0 0
SMALL
GASTEIGER

@<TRIPOS>ATOM
      1 C         139.5890  143.1063  161.8855 C.2     1  UNL1        0.2260
      2 O         139.0025  143.5682  160.5845 O.2     1  UNL1       -0.2748
      3 N         140.9143  142.4039  161.9035 N.am    1  UNL1       -0.2839
      4 H         141.2992  142.1007  162.7574 H       1  UNL1        0.1549
      5 C         141.6531  142.1634  160.6204 C.ar    1  UNL1        0.0505
      6 C         142.5135  143.2446  160.0364 C.ar    1  UNL1        0.0155
      7 C         143.2523  143.0041  158.7533 C.ar    1  UNL1        0.0128
      8 C         143.1308  141.6825  158.0542 C.ar    1  UNL1        0.0606
      9 CL        143.8696  141.4421  156.7711 Cl      1  UNL1       -0.0821
     10 C         142.2704  140.6015  158.6382 C.ar    1  UNL1        0.0459
     11 C         141.5316  140.8419  159.9213 C.ar    1  UNL1        0.0185
     12 C         142.1489  139.2800  157.9391 C.ar    1  UNL1        0.1447
     13 N         143.1037  138.1291  158.0568 N.ar    1  UNL1       -0.2268
     14 C         142.5962  137.0151  157.1900 C.ar    1  UNL1        0.0987
     15 C         143.1252  135.6395  156.9113 C.ar    1  UNL1        0.0206
     16 C         142.3857  134.7262  155.9791 C.ar    1  UNL1        0.0016
     17 C         141.1172  135.1886  155.3255 C.ar    1  UNL1        0.0016
     18 C         140.5882  136.5643  155.6042 C.ar    1  UNL1        0.0188
     19 C         141.3276  137.4776  156.5364 C.ar    1  UNL1        0.0789
     20 N         141.0513  138.8773  156.9994 N.ar    1  UNL1       -0.3094
     21 C         139.8824  139.7254  156.5939 C.3     1  UNL1        0.1319
     22 C         138.8502  143.3467  163.1686 C.3     1  UNL1        0.0823
     23 C         137.7363  144.3503  163.2159 C.3     1  UNL1        0.0100
     24 C         137.9752  138.1316  162.0342 C.3     1  UNL1        0.0521
     25 C         138.4752  138.8630  163.2446 C.ar    1  UNL1        0.0589
     26 C         138.8502  138.0999  164.4803 C.ar    1  UNL1        0.0144
     27 C         139.3502  138.8314  165.6907 C.ar    1  UNL1       -0.0019
     28 C         139.4751  140.3259  165.6654 C.ar    1  UNL1       -0.0089
     29 C         139.1002  141.0890  164.4297 C.ar    1  UNL1        0.0547
     30 N         138.6002  140.3576  163.2193 N.ar    1  UNL1       -0.2543
     31 C         139.2251  142.5836  164.4043 C.3     1  UNL1        0.0485
     32 C         139.7251  143.3151  165.6147 C.3     1  UNL1        0.0067
     33 C         140.1001  142.5519  166.8504 C.3     1  UNL1        0.0048
     34 C         139.9751  141.0574  166.8757 C.3     1  UNL1        0.0235
     35 C         140.3501  140.2943  168.1115 C.3     1  UNL1        0.0047
@<TRIPOS>BOND
     1    24    25    1
     2    25    26   ar
     3    26    27   ar
     4    27    28   ar
     5    28    29   ar
     6    29    30   ar
     7    29    31    1
     8    31    22    1
     9    22    23    1
    10    22     1    1
    11     1     2    2
    12     1     3   am
    13     3     5    1
    14     5     6   ar
    15     6     7   ar
    16     7     8   ar
    17     8     9    1
    18     8    10   ar
    19    10    12    1
    20    12    13   ar
    21    13    14   ar
    22    14    15   ar
    23    15    16   ar
    24    16    17   ar
    25    17    18   ar
    26    18    19   ar
    27    19    20   ar
    28    20    21    1
    29    10    11   ar
    30    31    32    1
    31    32    33    1
    32    33    34    1
    33    34    35    1
    34    30    25   ar
    35    11     5   ar
    36    34    28    1
    37    20    12   ar
    38    19    14   ar
    39     3     4    1
@<TRIPOS>MOLECULE
*****
 35 39 0 0 0
SMALL
GASTEIGER

@<TRIPOS>ATOM
      1 C         139.8426  139.1518  161.2060 C.2     1  UNL1        0.2260
      2 O         138.9475  139.0600  160.0059 O.2     1  UNL1       -0.2748
      3 N         141.3325  139.1567  161.0319 N.am    1  UNL1       -0.2839
      4 H         141.9199  139.2169  161.8196 H       1  UNL1        0.1549
      5 C         141.9273  139.0698  159.6576 C.ar    1  UNL1        0.0505
      6 C         142.4753  140.3007  158.9984 C.ar    1  UNL1        0.0155
      7 C         143.0701  140.2139  157.6241 C.ar    1  UNL1        0.0128
      8 C         143.1168  138.8961  156.9090 C.ar    1  UNL1        0.0606
      9 CL        143.7116  138.8092  155.5347 Cl      1  UNL1       -0.0821
     10 C         142.5687  137.6652  157.5682 C.ar    1  UNL1        0.0459
     11 C         141.9740  137.7521  158.9425 C.ar    1  UNL1        0.0185
     12 C         142.6154  136.3475  156.8531 C.ar    1  UNL1        0.1447
     13 N         143.6795  135.3008  157.0020 N.ar    1  UNL1       -0.2268
     14 C         143.3280  134.1515  156.1045 C.ar    1  UNL1        0.0987
     15 C         144.0090  132.8421  155.8370 C.ar    1  UNL1        0.0206
     16 C         143.4088  131.8691  154.8659 C.ar    1  UNL1        0.0016
     17 C         142.1276  132.2056  154.1622 C.ar    1  UNL1        0.0016
     18 C         141.4464  133.5150  154.4297 C.ar    1  UNL1        0.0188
     19 C         142.0466  134.4880  155.4009 C.ar    1  UNL1        0.0789
     20 N         141.6063  135.8452  155.8635 N.ar    1  UNL1       -0.3094
     21 C         140.3733  136.5723  155.4153 C.3     1  UNL1        0.1319
     22 C         139.2478  139.2386  162.5803 C.3     1  UNL1        0.0823
     23 C         138.8465  137.9877  163.3043 C.3     1  UNL1        0.0100
     24 C         144.0284  140.5651  164.7336 C.3     1  UNL1        0.0521
     25 C         142.6881  141.2368  164.6831 C.ar    1  UNL1        0.0589
     26 C         142.4947  142.5745  165.3334 C.ar    1  UNL1        0.0144
     27 C         141.1544  143.2463  165.2828 C.ar    1  UNL1       -0.0019
     28 C         140.0077  142.5802  164.5819 C.ar    1  UNL1       -0.0089
     29 C         140.2011  141.2425  163.9316 C.ar    1  UNL1        0.0547
     30 N         141.5414  140.5708  163.9822 N.ar    1  UNL1       -0.2543
     31 C         139.0543  140.5764  163.2306 C.3     1  UNL1        0.0485
     32 C         137.7141  141.2481  163.1801 C.3     1  UNL1        0.0067
     33 C         137.5207  142.5859  163.8304 C.3     1  UNL1        0.0048
     34 C         138.6674  143.2520  164.5313 C.3     1  UNL1        0.0235
     35 C         138.4739  144.5897  165.1816 C.3     1  UNL1        0.0047
@<TRIPOS>BOND
     1    24    25    1
     2    25    26   ar
     3    26    27   ar
     4    27    28   ar
     5    28    29   ar
     6    29    30   ar
     7    29    31    1
     8    31    22    1
     9    22    23    1
    10    22     1    1
    11     1     2    2
    12     1     3   am
    13     3     5    1
    14     5     6   ar
    15     6     7   ar
    16     7     8   ar
    17     8     9    1
    18     8    10   ar
    19    10    12    1
    20    12    13   ar
    21    13    14   ar
    22    14    15   ar
    23    15    16   ar
    24    16    17   ar
    25    17    18   ar
    26    18    19   ar
    27    19    20   ar
    28    20    21    1
    29    10    11   ar
    30    31    32    1
    31    32    33    1
    32    33    34    1
    33    34    35    1
    34    30    25   ar
    35    11     5   ar
    36    34    28    1
    37    20    12   ar
    38    19    14   ar
    39     3     4    1
@<TRIPOS>MOLECULE
*****
 35 39 0 0 0
SMALL
GASTEIGER

@<TRIPOS>ATOM
      1 C         140.3606  145.2561  157.4559 C.2     1  UNL1        0.2260
      2 O         141.5684  146.0908  157.7626 O.2     1  UNL1       -0.2748
      3 N         139.6205  144.5712  158.5664 N.am    1  UNL1       -0.2839
      4 H         138.8277  144.0233  158.3650 H       1  UNL1        0.1549
      5 C         140.0883  144.7211  159.9837 C.ar    1  UNL1        0.0505
      6 C         139.8198  145.9934  160.7315 C.ar    1  UNL1        0.0155
      7 C         140.2877  146.1434  162.1487 C.ar    1  UNL1        0.0128
      8 C         141.0239  145.0209  162.8182 C.ar    1  UNL1        0.0606
      9 CL        141.4918  145.1708  164.2355 Cl      1  UNL1       -0.0821
     10 C         141.2923  143.7486  162.0704 C.ar    1  UNL1        0.0459
     11 C         140.8245  143.5987  160.6532 C.ar    1  UNL1        0.0185
     12 C         142.0285  142.6263  162.7399 C.ar    1  UNL1        0.1447
     13 N         141.4182  141.5632  163.6044 N.ar    1  UNL1       -0.2268
     14 C         142.5168  140.6498  164.0613 C.ar    1  UNL1        0.0987
     15 C         142.5097  139.4286  164.9321 C.ar    1  UNL1        0.0206
     16 C         143.7920  138.7059  165.2208 C.ar    1  UNL1        0.0016
     17 C         145.0814  139.2044  164.6387 C.ar    1  UNL1        0.0016
     18 C         145.0885  140.4257  163.7677 C.ar    1  UNL1        0.0188
     19 C         143.8062  141.1484  163.4790 C.ar    1  UNL1        0.0789
     20 N         143.5044  142.3699  162.6624 N.ar    1  UNL1       -0.3094
     21 C         144.5032  143.1908  161.9018 C.3     1  UNL1        0.1319
     22 C         139.8928  145.1061  156.0386 C.3     1  UNL1        0.0823
     23 C         139.2323  143.8336  155.5974 C.3     1  UNL1        0.0100
     24 C         137.7524  149.4967  158.3606 C.3     1  UNL1        0.0521
     25 C         138.4319  149.2410  157.0481 C.ar    1  UNL1        0.0589
     26 C         138.6245  150.3635  156.0720 C.ar    1  UNL1        0.0144
     27 C         139.3040  150.1078  154.7594 C.ar    1  UNL1       -0.0019
     28 C         139.7910  148.7295  154.4229 C.ar    1  UNL1       -0.0089
     29 C         139.5984  147.6070  155.3990 C.ar    1  UNL1        0.0547
     30 N         138.9189  147.8627  156.7116 N.ar    1  UNL1       -0.2543
     31 C         140.0853  146.2287  155.0625 C.3     1  UNL1        0.0485
     32 C         140.7648  145.9730  153.7499 C.3     1  UNL1        0.0067
     33 C         140.9574  147.0956  152.7738 C.3     1  UNL1        0.0048
     34 C         140.4705  148.4738  153.1103 C.3     1  UNL1        0.0235
     35 C         140.6631  149.5964  152.1342 C.3     1  UNL1        0.0047
@<TRIPOS>BOND
     1    24    25    1
     2    25    26   ar
     3    26    27   ar
     4    27    28   ar
     5    28    29   ar
     6    29    30   ar
     7    29    31    1
     8    31    22    1
     9    22    23    1
    10    22     1    1
    11     1     2    2
    12     1     3   am
    13     3     5    1
    14     5     6   ar
    15     6     7   ar
    16     7     8   ar
    17     8     9    1
    18     8    10   ar
    19    10    12    1
    20    12    13   ar
    21    13    14   ar
    22    14    15   ar
    23    15    16   ar
    24    16    17   ar
    25    17    18   ar
    26    18    19   ar
    27    19    20   ar
    28    20    21    1
    29    10    11   ar
    30    31    32    1
    31    32    33    1
    32    33    34    1
    33    34    35    1
    34    30    25   ar
    35    11     5   ar
    36    34    28    1
    37    20    12   ar
    38    19    14   ar
    39     3     4    1
@<TRIPOS>MOLECULE
*****
 35 39 0 0 0
SMALL
GASTEIGER

@<TRIPOS>ATOM
      1 C         143.2266  139.5260  161.1962 C.2     1  UNL1        0.2260
      2 O         144.5228  138.8005  160.9878 O.2     1  UNL1       -0.2748
      3 N         142.2875  139.7298  160.0444 N.am    1  UNL1       -0.2839
      4 H         141.4368  140.2060  160.1812 H       1  UNL1        0.1549
      5 C         142.6447  139.2081  158.6841 C.ar    1  UNL1        0.0505
      6 C         143.1624  140.1453  157.6336 C.ar    1  UNL1        0.0155
      7 C         143.5196  139.6236  156.2733 C.ar    1  UNL1        0.0128
      8 C         143.3590  138.1647  155.9637 C.ar    1  UNL1        0.0606
      9 CL        143.7162  137.6429  154.6034 Cl      1  UNL1       -0.0821
     10 C         142.8413  137.2275  157.0142 C.ar    1  UNL1        0.0459
     11 C         142.4841  137.7493  158.3745 C.ar    1  UNL1        0.0185
     12 C         142.6808  135.7687  156.7046 C.ar    1  UNL1        0.1447
     13 N         143.5081  134.6515  157.2679 N.ar    1  UNL1       -0.2268
     14 C         143.0034  133.3632  156.6887 C.ar    1  UNL1        0.0987
     15 C         143.4340  131.9393  156.8812 C.ar    1  UNL1        0.0206
     16 C         142.7253  130.8364  156.1523 C.ar    1  UNL1        0.0016
     17 C         141.5860  131.1574  155.2309 C.ar    1  UNL1        0.0016
     18 C         141.1553  132.5813  155.0384 C.ar    1  UNL1        0.0188
     19 C         141.8640  133.6842  155.7673 C.ar    1  UNL1        0.0789
     20 N         141.6647  135.1709  155.7771 N.ar    1  UNL1       -0.3094
     21 C         140.6308  135.9269  154.9965 C.3     1  UNL1        0.1319
     22 C         142.8694  140.0477  162.5564 C.3     1  UNL1        0.0823
     23 C         143.6124  141.2180  163.1297 C.3     1  UNL1        0.0100
     24 C         138.8431  143.6530  162.7581 C.3     1  UNL1        0.0521
     25 C         139.0246  142.2653  163.2979 C.ar    1  UNL1        0.0589
     26 C         137.9246  141.6168  164.0848 C.ar    1  UNL1        0.0144
     27 C         138.1061  140.2291  164.6246 C.ar    1  UNL1       -0.0019
     28 C         139.3877  139.4899  164.3775 C.ar    1  UNL1       -0.0089
     29 C         140.4877  140.1384  163.5906 C.ar    1  UNL1        0.0547
     30 N         140.3062  141.5261  163.0507 N.ar    1  UNL1       -0.2543
     31 C         141.7694  139.3992  163.3434 C.3     1  UNL1        0.0485
     32 C         141.9509  138.0116  163.8832 C.3     1  UNL1        0.0067
     33 C         140.8508  137.3631  164.6702 C.3     1  UNL1        0.0048
     34 C         139.5692  138.1023  164.9173 C.3     1  UNL1        0.0235
     35 C         138.4692  137.4538  165.7043 C.3     1  UNL1        0.0047
@<TRIPOS>BOND
     1    24    25    1
     2    25    26   ar
     3    26    27   ar
     4    27    28   ar
     5    28    29   ar
     6    29    30   ar
     7    29    31    1
     8    31    22    1
     9    22    23    1
    10    22     1    1
    11     1     2    2
    12     1     3   am
    13     3     5    1
    14     5     6   ar
    15     6     7   ar
    16     7     8   ar
    17     8     9    1
    18     8    10   ar
    19    10    12    1
    20    12    13   ar
    21    13    14   ar
    22    14    15   ar
    23    15    16   ar
    24    16    17   ar
    25    17    18   ar
    26    18    19   ar
    27    19    20   ar
    28    20    21    1
    29    10    11   ar
    30    31    32    1
    31    32    33    1
    32    33    34    1
    33    34    35    1
    34    30    25   ar
    35    11     5   ar
    36    34    28    1
    37    20    12   ar
    38    19    14   ar
    39     3     4    1
@<TRIPOS>MOLECULE
*****
 35 39 0 0 0
SMALL
GASTEIGER

@<TRIPOS>ATOM
      1 C         141.0242  138.8688  163.1086 C.2     1  UNL1        0.2260
      2 O         142.2983  138.0814  163.0263 O.2     1  UNL1       -0.2748
      3 N         140.5822  139.7041  161.9437 N.am    1  UNL1       -0.2839
      4 H         139.7459  140.2208  161.9977 H       1  UNL1        0.1549
      5 C         141.4143  139.7520  160.6965 C.ar    1  UNL1        0.0505
      6 C         142.2277  140.9731  160.3841 C.ar    1  UNL1        0.0155
      7 C         143.0597  141.0210  159.1370 C.ar    1  UNL1        0.0128
      8 C         143.0784  139.8479  158.2023 C.ar    1  UNL1        0.0606
      9 CL        143.9105  139.8959  156.9552 Cl      1  UNL1       -0.0821
     10 C         142.2651  138.6270  158.5147 C.ar    1  UNL1        0.0459
     11 C         141.4330  138.5790  159.7619 C.ar    1  UNL1        0.0185
     12 C         142.2838  137.4540  157.5801 C.ar    1  UNL1        0.1447
     13 N         143.3638  136.4171  157.4880 N.ar    1  UNL1       -0.2268
     14 C         142.9733  135.4342  156.4244 C.ar    1  UNL1        0.0987
     15 C         143.6502  134.2036  155.8975 C.ar    1  UNL1        0.0206
     16 C         143.0057  133.4025  154.8054 C.ar    1  UNL1        0.0016
     17 C         141.6843  133.8318  154.2401 C.ar    1  UNL1        0.0016
     18 C         141.0074  135.0624  154.7669 C.ar    1  UNL1        0.0188
     19 C         141.6519  135.8636  155.8590 C.ar    1  UNL1        0.0789
     20 N         141.2258  137.1119  156.5733 N.ar    1  UNL1       -0.3094
     21 C         139.9633  137.8827  156.3245 C.3     1  UNL1        0.1319
     22 C         140.1921  138.8208  164.3557 C.3     1  UNL1        0.0823
     23 C         139.1832  137.7266  164.5425 C.3     1  UNL1        0.0100
     24 C         137.9169  143.3258  162.4118 C.3     1  UNL1        0.0521
     25 C         138.6183  142.9842  163.6930 C.ar    1  UNL1        0.0589
     26 C         138.7951  144.0304  164.7532 C.ar    1  UNL1        0.0144
     27 C         139.4965  143.6888  166.0344 C.ar    1  UNL1       -0.0019
     28 C         140.0211  142.3010  166.2553 C.ar    1  UNL1       -0.0089
     29 C         139.8443  141.2549  165.1951 C.ar    1  UNL1        0.0547
     30 N         139.1429  141.5964  163.9139 N.ar    1  UNL1       -0.2543
     31 C         140.3689  139.8670  165.4159 C.3     1  UNL1        0.0485
     32 C         141.0703  139.5254  166.6971 C.3     1  UNL1        0.0067
     33 C         141.2471  140.5717  167.7574 C.3     1  UNL1        0.0048
     34 C         140.7225  141.9595  167.5365 C.3     1  UNL1        0.0235
     35 C         140.8993  143.0057  168.5967 C.3     1  UNL1        0.0047
@<TRIPOS>BOND
     1    24    25    1
     2    25    26   ar
     3    26    27   ar
     4    27    28   ar
     5    28    29   ar
     6    29    30   ar
     7    29    31    1
     8    31    22    1
     9    22    23    1
    10    22     1    1
    11     1     2    2
    12     1     3   am
    13     3     5    1
    14     5     6   ar
    15     6     7   ar
    16     7     8   ar
    17     8     9    1
    18     8    10   ar
    19    10    12    1
    20    12    13   ar
    21    13    14   ar
    22    14    15   ar
    23    15    16   ar
    24    16    17   ar
    25    17    18   ar
    26    18    19   ar
    27    19    20   ar
    28    20    21    1
    29    10    11   ar
    30    31    32    1
    31    32    33    1
    32    33    34    1
    33    34    35    1
    34    30    25   ar
    35    11     5   ar
    36    34    28    1
    37    20    12   ar
    38    19    14   ar
    39     3     4    1
@<TRIPOS>MOLECULE
*****
 35 39 0 0 0
SMALL
GASTEIGER

@<TRIPOS>ATOM
      1 C         140.8302  139.5411  160.0839 C.2     1  UNL1        0.2260
      2 O         139.5137  140.2476  160.2159 O.2     1  UNL1       -0.2748
      3 N         141.3813  138.7597  161.2397 N.am    1  UNL1       -0.2839
      4 H         142.2454  138.2959  161.1531 H       1  UNL1        0.1549
      5 C         140.6157  138.6849  162.5275 C.ar    1  UNL1        0.0505
      6 C         139.4244  137.7804  162.6403 C.ar    1  UNL1        0.0155
      7 C         138.6588  137.7056  163.9281 C.ar    1  UNL1        0.0128
      8 C         139.0846  138.5352  165.1030 C.ar    1  UNL1        0.0606
      9 CL        138.3191  138.4604  166.3908 Cl      1  UNL1       -0.0821
     10 C         140.2760  139.4396  164.9902 C.ar    1  UNL1        0.0459
     11 C         141.0415  139.5144  163.7024 C.ar    1  UNL1        0.0185
     12 C         140.7018  140.2692  166.1651 C.ar    1  UNL1        0.1447
     13 N         139.9676  141.4535  166.7206 N.ar    1  UNL1       -0.2268
     14 C         140.7486  141.9764  167.8896 C.ar    1  UNL1        0.0987
     15 C         140.5090  143.1254  168.8236 C.ar    1  UNL1        0.0206
     16 C         141.4861  143.4133  169.9247 C.ar    1  UNL1        0.0016
     17 C         142.7029  142.5521  170.0917 C.ar    1  UNL1        0.0016
     18 C         142.9425  141.4031  169.1577 C.ar    1  UNL1        0.0188
     19 C         141.9654  141.1152  168.0567 C.ar    1  UNL1        0.0789
     20 N         141.9364  140.0601  166.9909 N.ar    1  UNL1       -0.3094
     21 C         142.9620  138.9848  166.7867 C.3     1  UNL1        0.1319
     22 C         141.5958  139.6159  158.7962 C.3     1  UNL1        0.0823
     23 C         142.3207  140.8761  158.4267 C.3     1  UNL1        0.0100
     24 C         137.4122  140.1918  155.4175 C.3     1  UNL1        0.0521
     25 C         138.4886  139.1588  155.5734 C.ar    1  UNL1        0.0589
     26 C         138.5292  137.9735  154.6551 C.ar    1  UNL1        0.0144
     27 C         139.6056  136.9405  154.8111 C.ar    1  UNL1       -0.0019
     28 C         140.6413  137.0928  155.8853 C.ar    1  UNL1       -0.0089
     29 C         140.6007  138.2782  156.8036 C.ar    1  UNL1        0.0547
     30 N         139.5243  139.3112  156.6476 N.ar    1  UNL1       -0.2543
     31 C         141.6364  138.4305  157.8779 C.3     1  UNL1        0.0485
     32 C         142.7128  137.3975  158.0338 C.3     1  UNL1        0.0067
     33 C         142.7534  136.2122  157.1155 C.3     1  UNL1        0.0048
     34 C         141.7177  136.0598  156.0412 C.3     1  UNL1        0.0235
     35 C         141.7584  134.8745  155.1229 C.3     1  UNL1        0.0047
@<TRIPOS>BOND
     1    24    25    1
     2    25    26   ar
     3    26    27   ar
     4    27    28   ar
     5    28    29   ar
     6    29    30   ar
     7    29    31    1
     8    31    22    1
     9    22    23    1
    10    22     1    1
    11     1     2    2
    12     1     3   am
    13     3     5    1
    14     5     6   ar
    15     6     7   ar
    16     7     8   ar
    17     8     9    1
    18     8    10   ar
    19    10    12    1
    20    12    13   ar
    21    13    14   ar
    22    14    15   ar
    23    15    16   ar
    24    16    17   ar
    25    17    18   ar
    26    18    19   ar
    27    19    20   ar
    28    20    21    1
    29    10    11   ar
    30    31    32    1
    31    32    33    1
    32    33    34    1
    33    34    35    1
    34    30    25   ar
    35    11     5   ar
    36    34    28    1
    37    20    12   ar
    38    19    14   ar
    39     3     4    1
@<TRIPOS>MOLECULE
*****
 35 39 0 0 0
SMALL
GASTEIGER

@<TRIPOS>ATOM
      1 C         139.0907  144.1395  163.0330 C.2     1  UNL1        0.2260
      2 O         137.8754  144.7871  162.4384 O.2     1  UNL1       -0.2748
      3 N         140.2361  143.7411  162.1502 N.am    1  UNL1       -0.2839
      4 H         141.0338  143.3161  162.5404 H       1  UNL1        0.1549
      5 C         140.1662  143.9905  160.6727 C.ar    1  UNL1        0.0505
      6 C         140.8491  145.1879  160.0810 C.ar    1  UNL1        0.0155
      7 C         140.7792  145.4372  158.6035 C.ar    1  UNL1        0.0128
      8 C         140.0263  144.4892  157.7177 C.ar    1  UNL1        0.0606
      9 CL        139.9564  144.7386  156.2403 Cl      1  UNL1       -0.0821
     10 C         139.3434  143.2920  158.3094 C.ar    1  UNL1        0.0459
     11 C         139.4134  143.0426  159.7869 C.ar    1  UNL1        0.0185
     12 C         138.5906  142.3440  157.4236 C.ar    1  UNL1        0.1447
     13 N         137.1205  142.3913  157.1294 N.ar    1  UNL1       -0.2268
     14 C         136.7970  141.2589  156.2005 C.ar    1  UNL1        0.0987
     15 C         135.5100  140.8115  155.5733 C.ar    1  UNL1        0.0206
     16 C         135.4931  139.6170  154.6662 C.ar    1  UNL1        0.0016
     17 C         136.7633  138.8699  154.3863 C.ar    1  UNL1        0.0016
     18 C         138.0504  139.3172  155.0135 C.ar    1  UNL1        0.0188
     19 C         138.0673  140.5117  155.9206 C.ar    1  UNL1        0.0789
     20 N         139.1757  141.1824  156.6765 N.ar    1  UNL1       -0.3094
     21 C         140.6164  140.7647  156.6840 C.3     1  UNL1        0.1319
     22 C         139.1606  143.8901  164.5105 C.3     1  UNL1        0.0823
     23 C         138.4409  144.8016  165.4599 C.3     1  UNL1        0.0100
     24 C         137.6222  139.5885  161.6158 C.3     1  UNL1        0.0521
     25 C         138.5991  139.7932  162.7356 C.ar    1  UNL1        0.0589
     26 C         139.3887  138.6324  163.2637 C.ar    1  UNL1        0.0144
     27 C         140.3655  138.8372  164.3835 C.ar    1  UNL1       -0.0019
     28 C         140.5527  140.2028  164.9751 C.ar    1  UNL1       -0.0089
     29 C         139.7631  141.3636  164.4470 C.ar    1  UNL1        0.0547
     30 N         138.7863  141.1588  163.3272 N.ar    1  UNL1       -0.2543
     31 C         139.9502  142.7293  165.0386 C.3     1  UNL1        0.0485
     32 C         140.9270  142.9341  166.1584 C.3     1  UNL1        0.0067
     33 C         141.7167  141.7731  166.6866 C.3     1  UNL1        0.0048
     34 C         141.5295  140.4076  166.0949 C.3     1  UNL1        0.0235
     35 C         142.3191  139.2467  166.6231 C.3     1  UNL1        0.0047
@<TRIPOS>BOND
     1    24    25    1
     2    25    26   ar
     3    26    27   ar
     4    27    28   ar
     5    28    29   ar
     6    29    30   ar
     7    29    31    1
     8    31    22    1
     9    22    23    1
    10    22     1    1
    11     1     2    2
    12     1     3   am
    13     3     5    1
    14     5     6   ar
    15     6     7   ar
    16     7     8   ar
    17     8     9    1
    18     8    10   ar
    19    10    12    1
    20    12    13   ar
    21    13    14   ar
    22    14    15   ar
    23    15    16   ar
    24    16    17   ar
    25    17    18   ar
    26    18    19   ar
    27    19    20   ar
    28    20    21    1
    29    10    11   ar
    30    31    32    1
    31    32    33    1
    32    33    34    1
    33    34    35    1
    34    30    25   ar
    35    11     5   ar
    36    34    28    1
    37    20    12   ar
    38    19    14   ar
    39     3     4    1
@<TRIPOS>MOLECULE
*****
 35 39 0 0 0
SMALL
GASTEIGER

@<TRIPOS>ATOM
      1 C         143.8595  141.8032  162.5415 C.2     1  UNL1        0.2260
      2 O         145.2606  141.3026  162.3512 O.2     1  UNL1       -0.2748
      3 N         142.9549  141.9691  161.3565 N.am    1  UNL1       -0.2839
      4 H         142.0353  142.2977  161.4814 H       1  UNL1        0.1549
      5 C         143.4514  141.6344  159.9812 C.ar    1  UNL1        0.0505
      6 C         144.4688  142.5138  159.3165 C.ar    1  UNL1        0.0155
      7 C         144.9653  142.1790  157.9412 C.ar    1  UNL1        0.0128
      8 C         144.4445  140.9649  157.2307 C.ar    1  UNL1        0.0606
      9 CL        144.9411  140.6302  155.8554 Cl      1  UNL1       -0.0821
     10 C         143.4272  140.0856  157.8954 C.ar    1  UNL1        0.0459
     11 C         142.9307  140.4203  159.2707 C.ar    1  UNL1        0.0185
     12 C         142.9065  138.8716  157.1849 C.ar    1  UNL1        0.1447
     13 N         143.2529  137.4473  157.5033 N.ar    1  UNL1       -0.2268
     14 C         142.5084  136.5641  156.5464 C.ar    1  UNL1        0.0987
     15 C         142.4607  135.0735  156.3859 C.ar    1  UNL1        0.0206
     16 C         141.6064  134.4613  155.3156 C.ar    1  UNL1        0.0016
     17 C         140.8000  135.3398  154.4057 C.ar    1  UNL1        0.0016
     18 C         140.8477  136.8305  154.5662 C.ar    1  UNL1        0.0188
     19 C         141.7019  137.4426  155.6365 C.ar    1  UNL1        0.0789
     20 N         141.9480  138.8687  156.0311 N.ar    1  UNL1       -0.3094
     21 C         141.3419  140.0793  155.3853 C.3     1  UNL1        0.1319
     22 C         143.3630  142.1379  163.9168 C.3     1  UNL1        0.0823
     23 C         144.2603  141.9510  165.1043 C.3     1  UNL1        0.0100
     24 C         140.2429  137.8049  164.7770 C.3     1  UNL1        0.0521
     25 C         139.9776  139.2794  164.7028 C.ar    1  UNL1        0.0589
     26 C         138.5839  139.8010  164.8907 C.ar    1  UNL1        0.0144
     27 C         138.3186  141.2755  164.8165 C.ar    1  UNL1       -0.0019
     28 C         139.4470  142.2284  164.5545 C.ar    1  UNL1       -0.0089
     29 C         140.8407  141.7067  164.3667 C.ar    1  UNL1        0.0547
     30 N         141.1060  140.2322  164.4408 N.ar    1  UNL1       -0.2543
     31 C         141.9693  142.6596  164.1047 C.3     1  UNL1        0.0485
     32 C         141.7040  144.1341  164.0305 C.3     1  UNL1        0.0067
     33 C         140.3101  144.6557  164.2184 C.3     1  UNL1        0.0048
     34 C         139.1817  143.7029  164.4804 C.3     1  UNL1        0.0235
     35 C         137.7880  144.2245  164.6682 C.3     1  UNL1        0.0047
@<TRIPOS>BOND
     1    24    25    1
     2    25    26   ar
     3    26    27   ar
     4    27    28   ar
     5    28    29   ar
     6    29    30   ar
     7    29    31    1
     8    31    22    1
     9    22    23    1
    10    22     1    1
    11     1     2    2
    12     1     3   am
    13     3     5    1
    14     5     6   ar
    15     6     7   ar
    16     7     8   ar
    17     8     9    1
    18     8    10   ar
    19    10    12    1
    20    12    13   ar
    21    13    14   ar
    22    14    15   ar
    23    15    16   ar
    24    16    17   ar
    25    17    18   ar
    26    18    19   ar
    27    19    20   ar
    28    20    21    1
    29    10    11   ar
    30    31    32    1
    31    32    33    1
    32    33    34    1
    33    34    35    1
    34    30    25   ar
    35    11     5   ar
    36    34    28    1
    37    20    12   ar
    38    19    14   ar
    39     3     4    1
