@<TRIPOS>MOLECULE
*****
 46 53 0 0 0
SMALL
GASTEIGER

@<TRIPOS>ATOM
      1 C         141.6181  141.2881  162.7388 C.ar    1  UNL1        0.0176
      2 C         140.4368  140.7348  161.9985 C.ar    1  UNL1        0.0012
      3 C         140.4971  140.5652  160.5093 C.ar    1  UNL1       -0.0029
      4 C         141.7389  140.9490  159.7605 C.ar    1  UNL1       -0.0061
      5 C         142.9203  141.5024  160.5009 C.ar    1  UNL1       -0.0029
      6 C         142.8599  141.6719  161.9901 C.ar    1  UNL1        0.0012
      7 O         142.1705  140.5977  172.2398 O.3     1  UNL1       -0.4783
      8 C         141.7475  141.3516  171.0140 C.ar    1  UNL1        0.3209
      9 N         141.0459  142.6772  170.9925 N.ar    1  UNL1       -0.0915
     10 N         140.8167  143.0572  169.5596 N.ar    1  UNL1       -0.1255
     11 C         141.3767  141.9664  168.6955 C.ar    1  UNL1        0.1741
     12 C         141.4370  141.7968  167.2064 C.ar    1  UNL1        0.0541
     13 C         140.8617  142.8509  166.3075 C.ar    1  UNL1        0.0061
     14 C         140.9221  142.6813  164.8184 C.ar    1  UNL1        0.0178
     15 C         141.5578  141.4576  164.2281 C.ar    1  UNL1        0.0812
     16 N         142.1330  140.4036  165.1269 N.ar    1  UNL1       -0.2452
     17 C         142.0727  140.5731  166.6161 C.ar    1  UNL1        0.0857
     18 C         142.6479  139.5191  167.5149 C.ar    1  UNL1        0.0384
     19 C         142.5876  139.6886  169.0041 C.ar    1  UNL1        0.0874
     20 N         141.9519  140.9123  169.5944 N.ar    1  UNL1       -0.2427
     21 H         141.9997  140.9523  173.0901 H       1  UNL1        0.2953
     22 C         140.3468  143.7355  163.9196 C.ar    1  UNL1        0.0015
     23 C         141.2388  144.7884  163.3316 C.ar    1  UNL1        0.0000
     24 C         140.6635  145.8424  162.4329 C.ar    1  UNL1        0.0000
     25 C         139.1960  145.8437  162.1220 C.ar    1  UNL1        0.0000
     26 C         138.3040  144.7909  162.7100 C.ar    1  UNL1        0.0000
     27 C         138.8794  143.7367  163.6088 C.ar    1  UNL1        0.0000
     28 C         141.7993  140.7795  158.2714 C.3     1  UNL1        0.0991
     29 N         141.8029  139.4041  157.6727 N.3     1  UNL1       -0.2689
     30 C         142.6552  138.3264  158.2743 C.3     1  UNL1        0.0728
     31 C         142.6587  136.9511  157.6756 C.3     1  UNL1        0.0249
     32 C         141.8099  136.6535  156.4752 C.3     1  UNL1        0.0613
     33 C         140.9576  137.7312  155.8736 C.3     1  UNL1        0.0249
     34 C         140.9541  139.1066  156.4723 C.3     1  UNL1        0.0728
     35 C         141.8134  135.2782  155.8765 C.ar    1  UNL1        0.1396
     36 N         141.0213  134.8343  154.6825 N.ar    1  UNL1       -0.1335
     37 N         141.3280  133.3871  154.4347 N.ar    1  UNL1       -0.1277
     38 C         142.3096  132.9365  155.4756 C.ar    1  UNL1        0.1807
     39 N         142.6095  134.1052  156.3666 N.ar    1  UNL1       -0.3234
     40 H         143.2216  134.1029  157.1378 H       1  UNL1        0.1686
     41 C         142.8894  131.5590  155.6030 C.ar    1  UNL1        0.1169
     42 C         144.3774  131.3698  155.6171 C.ar    1  UNL1        0.0223
     43 C         144.9571  129.9923  155.7446 C.ar    1  UNL1        0.0032
     44 C         144.0489  128.8039  155.8580 C.ar    1  UNL1        0.0207
     45 C         142.5610  128.9930  155.8439 C.ar    1  UNL1        0.0989
     46 N         141.9812  130.3706  155.7164 N.ar    1  UNL1       -0.2407
@<TRIPOS>BOND
     1     7     8    1
     2     8     9   ar
     3     9    10   ar
     4    10    11   ar
     5    11    12   ar
     6    12    13   ar
     7    13    14   ar
     8    14    22    1
     9    22    23   ar
    10    23    24   ar
    11    24    25   ar
    12    25    26   ar
    13    26    27   ar
    14    14    15   ar
    15    15     1    1
    16     1     2   ar
    17     2     3   ar
    18     3     4   ar
    19     4    28    1
    20    28    29    1
    21    29    30    1
    22    30    31    1
    23    31    32    1
    24    32    35    1
    25    35    36   ar
    26    36    37   ar
    27    37    38   ar
    28    38    41    1
    29    41    42   ar
    30    42    43   ar
    31    43    44   ar
    32    44    45   ar
    33    45    46   ar
    34    38    39   ar
    35    32    33    1
    36    33    34    1
    37     4     5   ar
    38     5     6   ar
    39    15    16   ar
    40    16    17   ar
    41    17    18   ar
    42    18    19   ar
    43    19    20   ar
    44    20     8   ar
    45    20    11   ar
    46    17    12   ar
    47    27    22   ar
    48     6     1   ar
    49    34    29    1
    50    39    35   ar
    51    46    41   ar
    52     7    21    1
    53    39    40    1
@<TRIPOS>MOLECULE
*****
 46 53 0 0 0
SMALL
GASTEIGER

@<TRIPOS>ATOM
      1 C         141.4246  141.1244  162.7576 C.ar    1  UNL1        0.0176
      2 C         142.6459  141.4400  161.9461 C.ar    1  UNL1        0.0012
      3 C         142.6318  141.2376  160.4598 C.ar    1  UNL1       -0.0029
      4 C         141.3963  140.7195  159.7852 C.ar    1  UNL1       -0.0061
      5 C         140.1749  140.4039  160.5969 C.ar    1  UNL1       -0.0029
      6 C         140.1891  140.6063  162.0831 C.ar    1  UNL1        0.0012
      7 O         142.3200  140.5802  172.2419 O.3     1  UNL1       -0.4783
      8 C         141.9024  141.3392  171.0174 C.ar    1  UNL1        0.3209
      9 N         141.2986  142.7121  170.9943 N.ar    1  UNL1       -0.0915
     10 N         141.0382  143.0800  169.5636 N.ar    1  UNL1       -0.1255
     11 C         141.4810  141.9344  168.7025 C.ar    1  UNL1        0.1741
     12 C         141.4669  141.7319  167.2163 C.ar    1  UNL1        0.0541
     13 C         140.9329  142.8078  166.3178 C.ar    1  UNL1        0.0061
     14 C         140.9188  142.6053  164.8316 C.ar    1  UNL1        0.0178
     15 C         141.4387  141.3269  164.2439 C.ar    1  UNL1        0.0812
     16 N         141.9728  140.2511  165.1423 N.ar    1  UNL1       -0.2452
     17 C         141.9869  140.4535  166.6286 C.ar    1  UNL1        0.0857
     18 C         142.5209  139.3777  167.5270 C.ar    1  UNL1        0.0384
     19 C         142.5350  139.5802  169.0133 C.ar    1  UNL1        0.0874
     20 N         142.0151  140.8586  169.6010 N.ar    1  UNL1       -0.2427
     21 H         142.2109  140.9629  173.0902 H       1  UNL1        0.2953
     22 C         140.3847  143.6812  163.9331 C.ar    1  UNL1        0.0015
     23 C         138.9124  143.7680  163.6599 C.ar    1  UNL1        0.0000
     24 C         138.3784  144.8438  162.7615 C.ar    1  UNL1        0.0000
     25 C         139.3168  145.8331  162.1362 C.ar    1  UNL1        0.0000
     26 C         140.7891  145.7463  162.4094 C.ar    1  UNL1        0.0000
     27 C         141.3231  144.6704  163.3078 C.ar    1  UNL1        0.0000
     28 C         141.3821  140.5170  158.2990 C.3     1  UNL1        0.0991
     29 N         141.5928  139.1465  157.7268 N.3     1  UNL1       -0.2689
     30 C         140.7564  138.6787  156.5729 C.3     1  UNL1        0.0728
     31 C         140.9671  137.3083  156.0008 C.3     1  UNL1        0.0249
     32 C         142.0143  136.4055  156.5826 C.3     1  UNL1        0.0613
     33 C         142.8507  136.8733  157.7365 C.3     1  UNL1        0.0249
     34 C         142.6400  138.2438  158.3086 C.3     1  UNL1        0.0728
     35 C         142.2251  135.0351  156.0105 C.ar    1  UNL1        0.1396
     36 N         143.5408  134.3265  155.8808 N.ar    1  UNL1       -0.1335
     37 N         143.2860  132.9860  155.2577 N.ar    1  UNL1       -0.1277
     38 C         141.8128  132.8661  155.0023 C.ar    1  UNL1        0.1807
     39 N         141.1571  134.1325  155.4675 N.ar    1  UNL1       -0.3234
     40 H         140.1947  134.3356  155.4241 H       1  UNL1        0.1686
     41 C         141.1173  131.6870  154.3893 C.ar    1  UNL1        0.1169
     42 C         140.5010  131.8046  153.0267 C.ar    1  UNL1        0.0223
     43 C         139.8055  130.6254  152.4138 C.ar    1  UNL1        0.0032
     44 C         139.7264  129.3285  153.1633 C.ar    1  UNL1        0.0207
     45 C         140.3427  129.2108  154.5257 C.ar    1  UNL1        0.0989
     46 N         141.0382  130.3900  155.1388 N.ar    1  UNL1       -0.2407
@<TRIPOS>BOND
     1     7     8    1
     2     8     9   ar
     3     9    10   ar
     4    10    11   ar
     5    11    12   ar
     6    12    13   ar
     7    13    14   ar
     8    14    22    1
     9    22    23   ar
    10    23    24   ar
    11    24    25   ar
    12    25    26   ar
    13    26    27   ar
    14    14    15   ar
    15    15     1    1
    16     1     2   ar
    17     2     3   ar
    18     3     4   ar
    19     4    28    1
    20    28    29    1
    21    29    30    1
    22    30    31    1
    23    31    32    1
    24    32    35    1
    25    35    36   ar
    26    36    37   ar
    27    37    38   ar
    28    38    41    1
    29    41    42   ar
    30    42    43   ar
    31    43    44   ar
    32    44    45   ar
    33    45    46   ar
    34    38    39   ar
    35    32    33    1
    36    33    34    1
    37     4     5   ar
    38     5     6   ar
    39    15    16   ar
    40    16    17   ar
    41    17    18   ar
    42    18    19   ar
    43    19    20   ar
    44    20     8   ar
    45    20    11   ar
    46    17    12   ar
    47    27    22   ar
    48     6     1   ar
    49    34    29    1
    50    39    35   ar
    51    46    41   ar
    52     7    21    1
    53    39    40    1
@<TRIPOS>MOLECULE
*****
 46 53 0 0 0
SMALL
GASTEIGER

@<TRIPOS>ATOM
      1 C         141.7326  141.5145  162.7798 C.ar    1  UNL1        0.0176
      2 C         140.8032  140.6132  162.0225 C.ar    1  UNL1        0.0012
      3 C         140.9166  140.5012  160.5309 C.ar    1  UNL1       -0.0029
      4 C         141.9596  141.2906  159.7968 C.ar    1  UNL1       -0.0061
      5 C         142.8891  142.1920  160.5541 C.ar    1  UNL1       -0.0029
      6 C         142.7756  142.3040  162.0456 C.ar    1  UNL1        0.0012
      7 O         142.1204  140.5613  172.2661 O.3     1  UNL1       -0.4783
      8 C         141.6533  141.3101  171.0532 C.ar    1  UNL1        0.3209
      9 N         140.8218  142.5585  171.0538 N.ar    1  UNL1       -0.0915
     10 N         140.5903  142.9620  169.6278 N.ar    1  UNL1       -0.1255
     11 C         141.2787  141.9628  168.7458 C.ar    1  UNL1        0.1741
     12 C         141.3921  141.8508  167.2543 C.ar    1  UNL1        0.0541
     13 C         140.7352  142.8716  166.3733 C.ar    1  UNL1        0.0061
     14 C         140.8487  142.7596  164.8818 C.ar    1  UNL1        0.0178
     15 C         141.6191  141.6266  164.2713 C.ar    1  UNL1        0.0812
     16 N         142.2761  140.6057  165.1523 N.ar    1  UNL1       -0.2452
     17 C         142.1626  140.7178  166.6438 C.ar    1  UNL1        0.0857
     18 C         142.8196  139.6969  167.5247 C.ar    1  UNL1        0.0384
     19 C         142.7061  139.8090  169.0163 C.ar    1  UNL1        0.0874
     20 N         141.9356  140.9419  169.6268 N.ar    1  UNL1       -0.2427
     21 H         141.8939  140.8679  173.1221 H       1  UNL1        0.2953
     22 C         140.1916  143.7805  164.0009 C.ar    1  UNL1        0.0015
     23 C         140.9899  144.9295  163.4599 C.ar    1  UNL1        0.0000
     24 C         140.3328  145.9503  162.5790 C.ar    1  UNL1        0.0000
     25 C         138.8774  145.8223  162.2390 C.ar    1  UNL1        0.0000
     26 C         138.0792  144.6733  162.7800 C.ar    1  UNL1        0.0000
     27 C         138.7363  143.6524  163.6609 C.ar    1  UNL1        0.0000
     28 C         142.0731  141.1786  158.3053 C.3     1  UNL1        0.0991
     29 N         141.7999  142.3735  157.4406 N.3     1  UNL1       -0.2689
     30 C         142.8704  142.9032  156.5332 C.3     1  UNL1        0.0728
     31 C         142.5972  144.0980  155.6685 C.3     1  UNL1        0.0249
     32 C         141.2533  144.7632  155.7112 C.3     1  UNL1        0.0613
     33 C         140.1828  144.2334  156.6186 C.3     1  UNL1        0.0249
     34 C         140.4561  143.0386  157.4833 C.3     1  UNL1        0.0728
     35 C         140.9801  145.9579  154.8466 C.ar    1  UNL1        0.1396
     36 N         141.3044  146.0831  153.3874 N.ar    1  UNL1       -0.1335
     37 N         140.8593  147.4399  152.9282 N.ar    1  UNL1       -0.1277
     38 C         140.2598  148.1534  154.1036 C.ar    1  UNL1        0.1807
     39 N         140.3345  147.2375  155.2892 N.ar    1  UNL1       -0.3234
     40 H         140.0157  147.4406  156.1983 H       1  UNL1        0.1686
     41 C         139.6864  149.5394  154.0950 C.ar    1  UNL1        0.1169
     42 C         139.7482  150.3690  152.8467 C.ar    1  UNL1        0.0223
     43 C         139.1747  151.7550  152.8382 C.ar    1  UNL1        0.0032
     44 C         138.5395  152.3115  154.0779 C.ar    1  UNL1        0.0207
     45 C         138.4777  151.4820  155.3261 C.ar    1  UNL1        0.0989
     46 N         139.0512  150.0959  155.3347 N.ar    1  UNL1       -0.2407
@<TRIPOS>BOND
     1     7     8    1
     2     8     9   ar
     3     9    10   ar
     4    10    11   ar
     5    11    12   ar
     6    12    13   ar
     7    13    14   ar
     8    14    22    1
     9    22    23   ar
    10    23    24   ar
    11    24    25   ar
    12    25    26   ar
    13    26    27   ar
    14    14    15   ar
    15    15     1    1
    16     1     2   ar
    17     2     3   ar
    18     3     4   ar
    19     4    28    1
    20    28    29    1
    21    29    30    1
    22    30    31    1
    23    31    32    1
    24    32    35    1
    25    35    36   ar
    26    36    37   ar
    27    37    38   ar
    28    38    41    1
    29    41    42   ar
    30    42    43   ar
    31    43    44   ar
    32    44    45   ar
    33    45    46   ar
    34    38    39   ar
    35    32    33    1
    36    33    34    1
    37     4     5   ar
    38     5     6   ar
    39    15    16   ar
    40    16    17   ar
    41    17    18   ar
    42    18    19   ar
    43    19    20   ar
    44    20     8   ar
    45    20    11   ar
    46    17    12   ar
    47    27    22   ar
    48     6     1   ar
    49    34    29    1
    50    39    35   ar
    51    46    41   ar
    52     7    21    1
    53    39    40    1
@<TRIPOS>MOLECULE
*****
 46 53 0 0 0
SMALL
GASTEIGER

@<TRIPOS>ATOM
      1 C         142.2722  140.2915  162.9393 C.ar    1  UNL1        0.0176
      2 C         143.2499  139.2531  162.4753 C.ar    1  UNL1        0.0012
      3 C         143.7959  139.3076  161.0792 C.ar    1  UNL1       -0.0029
      4 C         143.3641  140.4007  160.1472 C.ar    1  UNL1       -0.0061
      5 C         142.3862  141.4392  160.6113 C.ar    1  UNL1       -0.0029
      6 C         141.8403  141.3846  162.0073 C.ar    1  UNL1        0.0012
      7 O         140.6667  140.4381  172.3441 O.3     1  UNL1       -0.4783
      8 C         140.1693  140.2336  170.9439 C.ar    1  UNL1        0.3209
      9 N         138.7699  139.8638  170.5505 N.ar    1  UNL1       -0.0915
     10 N         138.7196  139.7648  169.0546 N.ar    1  UNL1       -0.1255
     11 C         140.0881  140.0733  168.5234 C.ar    1  UNL1        0.1741
     12 C         140.6341  140.1279  167.1274 C.ar    1  UNL1        0.0541
     13 C         139.7382  139.8381  165.9598 C.ar    1  UNL1        0.0061
     14 C         140.2842  139.8927  164.5638 C.ar    1  UNL1        0.0178
     15 C         141.7262  140.2370  164.3354 C.ar    1  UNL1        0.0812
     16 N         142.6221  140.5268  165.5029 N.ar    1  UNL1       -0.2452
     17 C         142.0761  140.4722  166.8990 C.ar    1  UNL1        0.0857
     18 C         142.9720  140.7620  168.0666 C.ar    1  UNL1        0.0384
     19 C         142.4260  140.7075  169.4627 C.ar    1  UNL1        0.0874
     20 N         140.9840  140.3631  169.6911 N.ar    1  UNL1       -0.2427
     21 H         140.0818  140.3350  173.0688 H       1  UNL1        0.2953
     22 C         139.3882  139.6028  163.3962 C.ar    1  UNL1        0.0015
     23 C         139.3860  138.2385  162.7729 C.ar    1  UNL1        0.0000
     24 C         138.4900  137.9488  161.6054 C.ar    1  UNL1        0.0000
     25 C         137.5962  139.0234  161.0610 C.ar    1  UNL1        0.0000
     26 C         137.5984  140.3878  161.6843 C.ar    1  UNL1        0.0000
     27 C         138.4945  140.6775  162.8519 C.ar    1  UNL1        0.0000
     28 C         143.9100  140.4553  158.7512 C.3     1  UNL1        0.0991
     29 N         143.5625  139.3776  157.7673 N.3     1  UNL1       -0.2689
     30 C         142.6725  138.2432  158.1807 C.3     1  UNL1        0.0728
     31 C         142.3250  137.1656  157.1969 C.3     1  UNL1        0.0249
     32 C         142.8677  137.2223  155.7996 C.3     1  UNL1        0.0613
     33 C         143.7577  138.3567  155.3862 C.3     1  UNL1        0.0249
     34 C         144.1051  139.4344  156.3701 C.3     1  UNL1        0.0728
     35 C         142.5202  136.1447  154.8158 C.ar    1  UNL1        0.1396
     36 N         142.1904  136.3468  153.3666 N.ar    1  UNL1       -0.1335
     37 N         141.9079  135.0028  152.7635 N.ar    1  UNL1       -0.1277
     38 C         142.0632  133.9699  153.8401 C.ar    1  UNL1        0.1807
     39 N         142.4416  134.6756  155.1084 N.ar    1  UNL1       -0.3234
     40 H         142.6090  134.2494  155.9800 H       1  UNL1        0.1686
     41 C         141.8734  132.4910  153.6770 C.ar    1  UNL1        0.1169
     42 C         140.9247  131.7530  154.5745 C.ar    1  UNL1        0.0223
     43 C         140.7349  130.2740  154.4113 C.ar    1  UNL1        0.0032
     44 C         141.4938  129.5330  153.3507 C.ar    1  UNL1        0.0207
     45 C         142.4425  130.2709  152.4532 C.ar    1  UNL1        0.0989
     46 N         142.6323  131.7499  152.6163 N.ar    1  UNL1       -0.2407
@<TRIPOS>BOND
     1     7     8    1
     2     8     9   ar
     3     9    10   ar
     4    10    11   ar
     5    11    12   ar
     6    12    13   ar
     7    13    14   ar
     8    14    22    1
     9    22    23   ar
    10    23    24   ar
    11    24    25   ar
    12    25    26   ar
    13    26    27   ar
    14    14    15   ar
    15    15     1    1
    16     1     2   ar
    17     2     3   ar
    18     3     4   ar
    19     4    28    1
    20    28    29    1
    21    29    30    1
    22    30    31    1
    23    31    32    1
    24    32    35    1
    25    35    36   ar
    26    36    37   ar
    27    37    38   ar
    28    38    41    1
    29    41    42   ar
    30    42    43   ar
    31    43    44   ar
    32    44    45   ar
    33    45    46   ar
    34    38    39   ar
    35    32    33    1
    36    33    34    1
    37     4     5   ar
    38     5     6   ar
    39    15    16   ar
    40    16    17   ar
    41    17    18   ar
    42    18    19   ar
    43    19    20   ar
    44    20     8   ar
    45    20    11   ar
    46    17    12   ar
    47    27    22   ar
    48     6     1   ar
    49    34    29    1
    50    39    35   ar
    51    46    41   ar
    52     7    21    1
    53    39    40    1
@<TRIPOS>MOLECULE
*****
 46 53 0 0 0
SMALL
GASTEIGER

@<TRIPOS>ATOM
      1 C         141.2180  140.9999  162.8495 C.ar    1  UNL1        0.0176
      2 C         142.1881  141.6909  161.9379 C.ar    1  UNL1        0.0012
      3 C         142.1259  141.4540  160.4580 C.ar    1  UNL1       -0.0029
      4 C         141.0934  140.5260  159.8898 C.ar    1  UNL1       -0.0061
      5 C         140.1232  139.8349  160.8015 C.ar    1  UNL1       -0.0029
      6 C         140.1855  140.0719  162.2814 C.ar    1  UNL1        0.0012
      7 O         142.3685  140.6540  172.3156 O.3     1  UNL1       -0.4783
      8 C         141.9373  141.3956  171.0851 C.ar    1  UNL1        0.3209
      9 N         141.3717  142.7843  171.0453 N.ar    1  UNL1       -0.0915
     10 N         141.0809  143.1256  169.6139 N.ar    1  UNL1       -0.1255
     11 C         141.4668  141.9479  168.7690 C.ar    1  UNL1        0.1741
     12 C         141.4046  141.7109  167.2891 C.ar    1  UNL1        0.0541
     13 C         140.8752  142.7801  166.3799 C.ar    1  UNL1        0.0061
     14 C         140.8131  142.5431  164.9001 C.ar    1  UNL1        0.0178
     15 C         141.2802  141.2369  164.3294 C.ar    1  UNL1        0.0812
     16 N         141.8095  140.1677  165.2386 N.ar    1  UNL1       -0.2452
     17 C         141.8717  140.4047  166.7185 C.ar    1  UNL1        0.0857
     18 C         142.4010  139.3355  167.6276 C.ar    1  UNL1        0.0384
     19 C         142.4632  139.5725  169.1075 C.ar    1  UNL1        0.0874
     20 N         141.9961  140.8787  169.6782 N.ar    1  UNL1       -0.2427
     21 H         142.2944  141.0596  173.1570 H       1  UNL1        0.2953
     22 C         140.2837  143.6123  163.9909 C.ar    1  UNL1        0.0015
     23 C         138.8524  143.5758  163.5437 C.ar    1  UNL1        0.0000
     24 C         138.3232  144.6450  162.6346 C.ar    1  UNL1        0.0000
     25 C         139.2252  145.7509  162.1726 C.ar    1  UNL1        0.0000
     26 C         140.6565  145.7875  162.6199 C.ar    1  UNL1        0.0000
     27 C         141.1857  144.7182  163.5290 C.ar    1  UNL1        0.0000
     28 C         141.0311  140.2890  158.4100 C.3     1  UNL1        0.0991
     29 N         139.7371  140.4752  157.6745 N.3     1  UNL1       -0.2689
     30 C         139.4828  139.7232  156.4018 C.3     1  UNL1        0.0728
     31 C         138.1889  139.9094  155.6664 C.3     1  UNL1        0.0249
     32 C         137.1491  140.8477  156.2036 C.3     1  UNL1        0.0613
     33 C         137.4035  141.5998  157.4763 C.3     1  UNL1        0.0249
     34 C         138.6975  141.4135  158.2117 C.3     1  UNL1        0.0728
     35 C         135.8552  141.0339  155.4682 C.ar    1  UNL1        0.1396
     36 N         135.7068  141.3170  154.0026 N.ar    1  UNL1       -0.1335
     37 N         134.2423  141.4278  153.6978 N.ar    1  UNL1       -0.1277
     38 C         133.4855  141.2133  154.9749 C.ar    1  UNL1        0.1807
     39 N         134.4823  140.9699  156.0691 N.ar    1  UNL1       -0.3234
     40 H         134.2723  140.7982  157.0155 H       1  UNL1        0.1686
     41 C         131.9939  141.2379  155.1307 C.ar    1  UNL1        0.1169
     42 C         131.1571  142.0742  154.2085 C.ar    1  UNL1        0.0223
     43 C         129.6654  142.0987  154.3643 C.ar    1  UNL1        0.0032
     44 C         129.0105  141.2869  155.4423 C.ar    1  UNL1        0.0207
     45 C         129.8472  140.4507  156.3645 C.ar    1  UNL1        0.0989
     46 N         131.3389  140.4261  156.2087 N.ar    1  UNL1       -0.2407
@<TRIPOS>BOND
     1     7     8    1
     2     8     9   ar
     3     9    10   ar
     4    10    11   ar
     5    11    12   ar
     6    12    13   ar
     7    13    14   ar
     8    14    22    1
     9    22    23   ar
    10    23    24   ar
    11    24    25   ar
    12    25    26   ar
    13    26    27   ar
    14    14    15   ar
    15    15     1    1
    16     1     2   ar
    17     2     3   ar
    18     3     4   ar
    19     4    28    1
    20    28    29    1
    21    29    30    1
    22    30    31    1
    23    31    32    1
    24    32    35    1
    25    35    36   ar
    26    36    37   ar
    27    37    38   ar
    28    38    41    1
    29    41    42   ar
    30    42    43   ar
    31    43    44   ar
    32    44    45   ar
    33    45    46   ar
    34    38    39   ar
    35    32    33    1
    36    33    34    1
    37     4     5   ar
    38     5     6   ar
    39    15    16   ar
    40    16    17   ar
    41    17    18   ar
    42    18    19   ar
    43    19    20   ar
    44    20     8   ar
    45    20    11   ar
    46    17    12   ar
    47    27    22   ar
    48     6     1   ar
    49    34    29    1
    50    39    35   ar
    51    46    41   ar
    52     7    21    1
    53    39    40    1
@<TRIPOS>MOLECULE
*****
 46 53 0 0 0
SMALL
GASTEIGER

@<TRIPOS>ATOM
      1 C         141.3882  139.3244  162.2092 C.ar    1  UNL1        0.0176
      2 C         140.7996  140.1910  161.1358 C.ar    1  UNL1        0.0012
      3 C         141.2176  140.0038  159.7074 C.ar    1  UNL1       -0.0029
      4 C         142.2243  138.9499  159.3525 C.ar    1  UNL1       -0.0061
      5 C         142.8129  138.0833  160.4261 C.ar    1  UNL1       -0.0029
      6 C         142.3949  138.2705  161.8544 C.ar    1  UNL1        0.0012
      7 O         137.1639  139.3862  170.7650 O.3     1  UNL1       -0.4783
      8 C         138.2933  139.8031  169.8702 C.ar    1  UNL1        0.3209
      9 N         139.4665  140.6491  170.2672 N.ar    1  UNL1       -0.0915
     10 N         140.3461  140.8161  169.0637 N.ar    1  UNL1       -0.1255
     11 C         139.7164  140.0733  167.9228 C.ar    1  UNL1        0.1741
     12 C         140.1343  139.8861  166.4944 C.ar    1  UNL1        0.0541
     13 C         141.4030  140.5121  165.9959 C.ar    1  UNL1        0.0061
     14 C         141.8210  140.3249  164.5676 C.ar    1  UNL1        0.0178
     15 C         140.9702  139.5116  163.6377 C.ar    1  UNL1        0.0812
     16 N         139.7016  138.8856  164.1361 N.ar    1  UNL1       -0.2452
     17 C         139.2836  139.0728  165.5645 C.ar    1  UNL1        0.0857
     18 C         138.0150  138.4467  166.0629 C.ar    1  UNL1        0.0384
     19 C         137.5970  138.6339  167.4913 C.ar    1  UNL1        0.0874
     20 N         138.4477  139.4472  168.4212 N.ar    1  UNL1       -0.2427
     21 H         137.1518  139.6578  171.6617 H       1  UNL1        0.2953
     22 C         143.0897  140.9510  164.0692 C.ar    1  UNL1        0.0015
     23 C         144.4087  140.2892  164.3379 C.ar    1  UNL1        0.0000
     24 C         145.6773  140.9153  163.8395 C.ar    1  UNL1        0.0000
     25 C         145.6270  142.2034  163.0723 C.ar    1  UNL1        0.0000
     26 C         144.3080  142.8652  162.8036 C.ar    1  UNL1        0.0000
     27 C         143.0394  142.2390  163.3020 C.ar    1  UNL1        0.0000
     28 C         142.6423  138.7627  157.9242 C.3     1  UNL1        0.0991
     29 N         142.3455  137.4725  157.2189 N.3     1  UNL1       -0.2689
     30 C         141.1483  137.3664  156.3214 C.3     1  UNL1        0.0728
     31 C         140.8516  136.0763  155.6162 C.3     1  UNL1        0.0249
     32 C         141.7521  134.8921  155.8084 C.3     1  UNL1        0.0613
     33 C         142.9493  134.9981  156.7059 C.3     1  UNL1        0.0249
     34 C         143.2460  136.2883  157.4112 C.3     1  UNL1        0.0728
     35 C         141.4554  133.6020  155.1032 C.ar    1  UNL1        0.1396
     36 N         141.0827  133.4526  153.6579 N.ar    1  UNL1       -0.1335
     37 N         140.8762  131.9930  153.3808 N.ar    1  UNL1       -0.1277
     38 C         141.1212  131.2401  154.6549 C.ar    1  UNL1        0.1807
     39 N         141.4791  132.2345  155.7194 N.ar    1  UNL1       -0.3234
     40 H         141.6922  132.0263  156.6577 H       1  UNL1        0.1686
     41 C         141.0252  129.7540  154.8333 C.ar    1  UNL1        0.1169
     42 C         139.6898  129.1110  155.0647 C.ar    1  UNL1        0.0223
     43 C         139.5938  127.6247  155.2430 C.ar    1  UNL1        0.0032
     44 C         140.8332  126.7814  155.1900 C.ar    1  UNL1        0.0207
     45 C         142.1685  127.4243  154.9586 C.ar    1  UNL1        0.0989
     46 N         142.2645  128.9106  154.7803 N.ar    1  UNL1       -0.2407
@<TRIPOS>BOND
     1     7     8    1
     2     8     9   ar
     3     9    10   ar
     4    10    11   ar
     5    11    12   ar
     6    12    13   ar
     7    13    14   ar
     8    14    22    1
     9    22    23   ar
    10    23    24   ar
    11    24    25   ar
    12    25    26   ar
    13    26    27   ar
    14    14    15   ar
    15    15     1    1
    16     1     2   ar
    17     2     3   ar
    18     3     4   ar
    19     4    28    1
    20    28    29    1
    21    29    30    1
    22    30    31    1
    23    31    32    1
    24    32    35    1
    25    35    36   ar
    26    36    37   ar
    27    37    38   ar
    28    38    41    1
    29    41    42   ar
    30    42    43   ar
    31    43    44   ar
    32    44    45   ar
    33    45    46   ar
    34    38    39   ar
    35    32    33    1
    36    33    34    1
    37     4     5   ar
    38     5     6   ar
    39    15    16   ar
    40    16    17   ar
    41    17    18   ar
    42    18    19   ar
    43    19    20   ar
    44    20     8   ar
    45    20    11   ar
    46    17    12   ar
    47    27    22   ar
    48     6     1   ar
    49    34    29    1
    50    39    35   ar
    51    46    41   ar
    52     7    21    1
    53    39    40    1
@<TRIPOS>MOLECULE
*****
 46 53 0 0 0
SMALL
GASTEIGER

@<TRIPOS>ATOM
      1 C         140.6809  140.9306  162.1228 C.ar    1  UNL1        0.0176
      2 C         141.6337  139.9504  161.5055 C.ar    1  UNL1        0.0012
      3 C         141.9137  140.0023  160.0327 C.ar    1  UNL1       -0.0029
      4 C         141.2408  141.0346  159.1774 C.ar    1  UNL1       -0.0061
      5 C         140.2880  142.0149  159.7948 C.ar    1  UNL1       -0.0029
      6 C         140.0081  141.9629  161.2675 C.ar    1  UNL1        0.0012
      7 O         137.6123  139.1546  170.9816 O.3     1  UNL1       -0.4783
      8 C         138.4892  139.9257  170.0402 C.ar    1  UNL1        0.3209
      9 N         139.4542  141.0090  170.4215 N.ar    1  UNL1       -0.0915
     10 N         140.1166  141.5017  169.1691 N.ar    1  UNL1       -0.1255
     11 C         139.5610  140.7229  168.0137 C.ar    1  UNL1        0.1741
     12 C         139.8410  140.7748  166.5410 C.ar    1  UNL1        0.0541
     13 C         140.8467  141.7488  166.0026 C.ar    1  UNL1        0.0061
     14 C         141.1267  141.8007  164.5299 C.ar    1  UNL1        0.0178
     15 C         140.4009  140.8786  163.5956 C.ar    1  UNL1        0.0812
     16 N         139.3952  139.9047  164.1339 N.ar    1  UNL1       -0.2452
     17 C         139.1152  139.8527  165.6067 C.ar    1  UNL1        0.0857
     18 C         138.1095  138.8788  166.1450 C.ar    1  UNL1        0.0384
     19 C         137.8295  138.8268  167.6178 C.ar    1  UNL1        0.0874
     20 N         138.5553  139.7489  168.5521 N.ar    1  UNL1       -0.2427
     21 H         137.6389  139.3351  171.9007 H       1  UNL1        0.2953
     22 C         142.1324  142.7748  163.9916 C.ar    1  UNL1        0.0015
     23 C         143.5086  142.3053  163.6231 C.ar    1  UNL1        0.0000
     24 C         144.5142  143.2793  163.0849 C.ar    1  UNL1        0.0000
     25 C         144.1438  144.7230  162.9150 C.ar    1  UNL1        0.0000
     26 C         142.7676  145.1924  163.2835 C.ar    1  UNL1        0.0000
     27 C         141.7620  144.2183  163.8218 C.ar    1  UNL1        0.0000
     28 C         141.5208  141.0867  157.7047 C.3     1  UNL1        0.0991
     29 N         141.3379  142.3709  156.9514 N.3     1  UNL1       -0.2689
     30 C         142.3787  143.4474  157.0403 C.3     1  UNL1        0.0728
     31 C         142.1957  144.7315  156.2871 C.3     1  UNL1        0.0249
     32 C         140.9720  144.9393  155.4449 C.3     1  UNL1        0.0613
     33 C         139.9312  143.8628  155.3560 C.3     1  UNL1        0.0249
     34 C         140.1142  142.5786  156.1092 C.3     1  UNL1        0.0728
     35 C         140.7890  146.2234  154.6917 C.ar    1  UNL1        0.1396
     36 N         141.2663  146.5036  153.2975 N.ar    1  UNL1       -0.1335
     37 N         140.8690  147.9062  152.9445 N.ar    1  UNL1       -0.1277
     38 C         140.1460  148.4930  154.1205 C.ar    1  UNL1        0.1807
     39 N         140.0966  147.4530  155.2003 N.ar    1  UNL1       -0.3234
     40 H         139.6825  147.5589  156.0871 H       1  UNL1        0.1686
     41 C         139.5731  149.8768  154.2024 C.ar    1  UNL1        0.1169
     42 C         138.9714  150.3647  155.4869 C.ar    1  UNL1        0.0223
     43 C         138.3985  151.7486  155.5688 C.ar    1  UNL1        0.0032
     44 C         138.4272  152.6446  154.3661 C.ar    1  UNL1        0.0207
     45 C         139.0289  152.1567  153.0816 C.ar    1  UNL1        0.0989
     46 N         139.6019  150.7728  152.9997 N.ar    1  UNL1       -0.2407
@<TRIPOS>BOND
     1     7     8    1
     2     8     9   ar
     3     9    10   ar
     4    10    11   ar
     5    11    12   ar
     6    12    13   ar
     7    13    14   ar
     8    14    22    1
     9    22    23   ar
    10    23    24   ar
    11    24    25   ar
    12    25    26   ar
    13    26    27   ar
    14    14    15   ar
    15    15     1    1
    16     1     2   ar
    17     2     3   ar
    18     3     4   ar
    19     4    28    1
    20    28    29    1
    21    29    30    1
    22    30    31    1
    23    31    32    1
    24    32    35    1
    25    35    36   ar
    26    36    37   ar
    27    37    38   ar
    28    38    41    1
    29    41    42   ar
    30    42    43   ar
    31    43    44   ar
    32    44    45   ar
    33    45    46   ar
    34    38    39   ar
    35    32    33    1
    36    33    34    1
    37     4     5   ar
    38     5     6   ar
    39    15    16   ar
    40    16    17   ar
    41    17    18   ar
    42    18    19   ar
    43    19    20   ar
    44    20     8   ar
    45    20    11   ar
    46    17    12   ar
    47    27    22   ar
    48     6     1   ar
    49    34    29    1
    50    39    35   ar
    51    46    41   ar
    52     7    21    1
    53    39    40    1
@<TRIPOS>MOLECULE
*****
 46 53 0 0 0
SMALL
GASTEIGER

@<TRIPOS>ATOM
      1 C         142.3102  140.3613  162.5986 C.ar    1  UNL1        0.0176
      2 C         143.6516  140.4977  161.9415 C.ar    1  UNL1        0.0012
      3 C         143.8183  140.1372  160.4949 C.ar    1  UNL1       -0.0029
      4 C         142.6435  139.6403  159.7057 C.ar    1  UNL1       -0.0061
      5 C         141.3020  139.5039  160.3630 C.ar    1  UNL1       -0.0029
      6 C         141.1354  139.8643  161.8094 C.ar    1  UNL1        0.0012
      7 O         142.0433  140.8455  172.1246 O.3     1  UNL1       -0.4783
      8 C         141.7789  141.4642  170.7840 C.ar    1  UNL1        0.3209
      9 N         141.1843  142.8195  170.5402 N.ar    1  UNL1       -0.0915
     10 N         141.1006  143.0291  169.0573 N.ar    1  UNL1       -0.1255
     11 C         141.6434  141.8033  168.3845 C.ar    1  UNL1        0.1741
     12 C         141.8101  141.4428  166.9381 C.ar    1  UNL1        0.0541
     13 C         141.3909  142.4099  165.8709 C.ar    1  UNL1        0.0061
     14 C         141.5576  142.0494  164.4245 C.ar    1  UNL1        0.0178
     15 C         142.1435  140.7217  164.0452 C.ar    1  UNL1        0.0812
     16 N         142.5627  139.7546  165.1122 N.ar    1  UNL1       -0.2452
     17 C         142.3960  140.1151  166.5588 C.ar    1  UNL1        0.0857
     18 C         142.8153  139.1479  167.6259 C.ar    1  UNL1        0.0384
     19 C         142.6486  139.5084  169.0724 C.ar    1  UNL1        0.0874
     20 N         142.0626  140.8361  169.4517 N.ar    1  UNL1       -0.2427
     21 H         141.8323  141.3154  172.9073 H       1  UNL1        0.2953
     22 C         141.1383  143.0167  163.3573 C.ar    1  UNL1        0.0015
     23 C         139.6987  143.1007  162.9447 C.ar    1  UNL1        0.0000
     24 C         139.2795  144.0679  161.8777 C.ar    1  UNL1        0.0000
     25 C         140.3000  144.9512  161.2231 C.ar    1  UNL1        0.0000
     26 C         141.7397  144.8673  161.6358 C.ar    1  UNL1        0.0000
     27 C         142.1588  143.9000  162.7029 C.ar    1  UNL1        0.0000
     28 C         142.8101  139.2798  158.2592 C.3     1  UNL1        0.0991
     29 N         142.9557  137.8422  157.8566 N.3     1  UNL1       -0.2689
     30 C         143.0606  137.4766  156.4056 C.3     1  UNL1        0.0728
     31 C         143.2062  136.0391  156.0031 C.3     1  UNL1        0.0249
     32 C         143.2469  134.9670  157.0515 C.3     1  UNL1        0.0613
     33 C         143.1420  135.3326  158.5024 C.3     1  UNL1        0.0249
     34 C         142.9964  136.7702  158.9050 C.3     1  UNL1        0.0728
     35 C         143.3925  133.5294  156.6489 C.ar    1  UNL1        0.1396
     36 N         143.6495  133.0244  155.2601 N.ar    1  UNL1       -0.1335
     37 N         143.7225  131.5273  155.3172 N.ar    1  UNL1       -0.1277
     38 C         143.5107  131.1070  156.7415 C.ar    1  UNL1        0.1807
     39 N         143.3067  132.3443  157.5645 N.ar    1  UNL1       -0.3234
     40 H         143.1450  132.3735  158.5352 H       1  UNL1        0.1686
     41 C         143.5040  129.6969  157.2530 C.ar    1  UNL1        0.1169
     42 C         144.0074  129.3976  158.6340 C.ar    1  UNL1        0.0223
     43 C         144.0006  127.9875  159.1454 C.ar    1  UNL1        0.0032
     44 C         143.4905  126.8767  158.2759 C.ar    1  UNL1        0.0207
     45 C         142.9871  127.1760  156.8950 C.ar    1  UNL1        0.0989
     46 N         142.9938  128.5862  156.3835 N.ar    1  UNL1       -0.2407
@<TRIPOS>BOND
     1     7     8    1
     2     8     9   ar
     3     9    10   ar
     4    10    11   ar
     5    11    12   ar
     6    12    13   ar
     7    13    14   ar
     8    14    22    1
     9    22    23   ar
    10    23    24   ar
    11    24    25   ar
    12    25    26   ar
    13    26    27   ar
    14    14    15   ar
    15    15     1    1
    16     1     2   ar
    17     2     3   ar
    18     3     4   ar
    19     4    28    1
    20    28    29    1
    21    29    30    1
    22    30    31    1
    23    31    32    1
    24    32    35    1
    25    35    36   ar
    26    36    37   ar
    27    37    38   ar
    28    38    41    1
    29    41    42   ar
    30    42    43   ar
    31    43    44   ar
    32    44    45   ar
    33    45    46   ar
    34    38    39   ar
    35    32    33    1
    36    33    34    1
    37     4     5   ar
    38     5     6   ar
    39    15    16   ar
    40    16    17   ar
    41    17    18   ar
    42    18    19   ar
    43    19    20   ar
    44    20     8   ar
    45    20    11   ar
    46    17    12   ar
    47    27    22   ar
    48     6     1   ar
    49    34    29    1
    50    39    35   ar
    51    46    41   ar
    52     7    21    1
    53    39    40    1
@<TRIPOS>MOLECULE
*****
 46 53 0 0 0
SMALL
GASTEIGER

@<TRIPOS>ATOM
      1 C         140.6426  139.7936  161.5554 C.ar    1  UNL1        0.0176
      2 C         141.7606  138.9298  161.0517 C.ar    1  UNL1        0.0012
      3 C         141.9551  138.7393  159.5766 C.ar    1  UNL1       -0.0029
      4 C         141.0316  139.4127  158.6052 C.ar    1  UNL1       -0.0061
      5 C         139.9135  140.2765  159.1089 C.ar    1  UNL1       -0.0029
      6 C         139.7190  140.4670  160.5840 C.ar    1  UNL1        0.0012
      7 O         137.9433  139.6581  170.7066 O.3     1  UNL1       -0.4783
      8 C         138.8386  140.1825  169.6234 C.ar    1  UNL1        0.3209
      9 N         139.9341  141.1923  169.7968 N.ar    1  UNL1       -0.0915
     10 N         140.5682  141.4231  168.4571 N.ar    1  UNL1       -0.1255
     11 C         139.8645  140.5559  167.4557 C.ar    1  UNL1        0.1741
     12 C         140.0590  140.3653  165.9806 C.ar    1  UNL1        0.0541
     13 C         141.1280  141.1321  165.2598 C.ar    1  UNL1        0.0061
     14 C         141.3224  140.9415  163.7848 C.ar    1  UNL1        0.0178
     15 C         140.4480  139.9842  163.0305 C.ar    1  UNL1        0.0812
     16 N         139.3792  139.2175  163.7512 N.ar    1  UNL1       -0.2452
     17 C         139.1846  139.4080  165.2264 C.ar    1  UNL1        0.0857
     18 C         138.1158  138.6413  165.9471 C.ar    1  UNL1        0.0384
     19 C         137.9212  138.8319  167.4223 C.ar    1  UNL1        0.0874
     20 N         138.7956  139.7892  168.1765 N.ar    1  UNL1       -0.2427
     21 H         138.0444  139.9634  171.5867 H       1  UNL1        0.2953
     22 C         142.3914  141.7083  163.0640 C.ar    1  UNL1        0.0015
     23 C         143.8138  141.2343  163.1084 C.ar    1  UNL1        0.0000
     24 C         144.8827  142.0011  162.3877 C.ar    1  UNL1        0.0000
     25 C         144.5291  143.2420  161.6225 C.ar    1  UNL1        0.0000
     26 C         143.1067  143.7159  161.5782 C.ar    1  UNL1        0.0000
     27 C         142.0378  142.9491  162.2989 C.ar    1  UNL1        0.0000
     28 C         141.2261  139.2222  157.1301 C.3     1  UNL1        0.0991
     29 N         141.5910  137.8711  156.5901 N.3     1  UNL1       -0.2689
     30 C         140.5970  137.0942  155.7786 C.3     1  UNL1        0.0728
     31 C         140.9620  135.7433  155.2387 C.3     1  UNL1        0.0249
     32 C         142.3209  135.1691  155.5102 C.3     1  UNL1        0.0613
     33 C         143.3148  135.9460  156.3216 C.3     1  UNL1        0.0249
     34 C         142.9499  137.2970  156.8616 C.3     1  UNL1        0.0728
     35 C         142.6858  133.8182  154.9702 C.ar    1  UNL1        0.1396
     36 N         142.4376  133.3303  153.5736 N.ar    1  UNL1       -0.1335
     37 N         142.9614  131.9285  153.4722 N.ar    1  UNL1       -0.1277
     38 C         143.5335  131.5498  154.8062 C.ar    1  UNL1        0.1807
     39 N         143.3632  132.7177  155.7319 N.ar    1  UNL1       -0.3234
     40 H         143.6462  132.7553  156.6741 H       1  UNL1        0.1686
     41 C         144.1650  130.2343  155.1534 C.ar    1  UNL1        0.1169
     42 C         144.2067  129.7759  156.5811 C.ar    1  UNL1        0.0223
     43 C         144.8382  128.4604  156.9283 C.ar    1  UNL1        0.0032
     44 C         145.4280  127.6032  155.8478 C.ar    1  UNL1        0.0207
     45 C         145.3863  128.0615  154.4202 C.ar    1  UNL1        0.0989
     46 N         144.7548  129.3771  154.0730 N.ar    1  UNL1       -0.2407
@<TRIPOS>BOND
     1     7     8    1
     2     8     9   ar
     3     9    10   ar
     4    10    11   ar
     5    11    12   ar
     6    12    13   ar
     7    13    14   ar
     8    14    22    1
     9    22    23   ar
    10    23    24   ar
    11    24    25   ar
    12    25    26   ar
    13    26    27   ar
    14    14    15   ar
    15    15     1    1
    16     1     2   ar
    17     2     3   ar
    18     3     4   ar
    19     4    28    1
    20    28    29    1
    21    29    30    1
    22    30    31    1
    23    31    32    1
    24    32    35    1
    25    35    36   ar
    26    36    37   ar
    27    37    38   ar
    28    38    41    1
    29    41    42   ar
    30    42    43   ar
    31    43    44   ar
    32    44    45   ar
    33    45    46   ar
    34    38    39   ar
    35    32    33    1
    36    33    34    1
    37     4     5   ar
    38     5     6   ar
    39    15    16   ar
    40    16    17   ar
    41    17    18   ar
    42    18    19   ar
    43    19    20   ar
    44    20     8   ar
    45    20    11   ar
    46    17    12   ar
    47    27    22   ar
    48     6     1   ar
    49    34    29    1
    50    39    35   ar
    51    46    41   ar
    52     7    21    1
    53    39    40    1
