@<TRIPOS>MOLECULE
*****
 23 26 0 0 0
SMALL
GASTEIGER

@<TRIPOS>ATOM
      1 C         142.0787  140.2795  167.1194 C.ar    1  UNL1       -0.0207
      2 C         140.7432  139.9506  166.5208 C.ar    1  UNL1       -0.0027
      3 C         140.2282  140.7425  165.3556 C.ar    1  UNL1        0.0188
      4 C         141.0487  141.8631  164.7890 C.ar    1  UNL1        0.0812
      5 N         140.5336  142.6549  163.6237 N.ar    1  UNL1       -0.2453
      6 C         141.3540  143.7756  163.0571 C.ar    1  UNL1        0.0844
      7 C         142.6895  144.1044  163.6557 C.ar    1  UNL1        0.0192
      8 C         143.2046  143.3126  164.8209 C.ar    1  UNL1        0.0030
      9 C         142.3841  142.1919  165.3876 C.ar    1  UNL1        0.0174
     10 C         142.8991  141.4001  166.5527 C.ar    1  UNL1       -0.0027
     11 C         140.8390  144.5674  161.8919 C.ar    1  UNL1        0.0584
     12 C         141.2783  144.4235  160.4649 C.ar    1  UNL1        0.0453
     13 C         140.5051  145.4093  159.6401 C.ar    1  UNL1        0.1798
     14 O         139.5878  146.1625  160.5575 O.2     1  UNL1       -0.4473
     15 C         139.7942  145.6422  161.9491 C.ar    1  UNL1        0.1812
     16 C         142.5938  139.4876  168.2846 C.3     1  UNL1        0.0437
     17 C         142.4242  140.0104  169.6803 C.3     1  UNL1        0.0768
     18 C         139.1976  140.4214  169.9442 C.3     1  UNL1        0.0173
     19 C         140.2343  141.5018  170.0339 C.3     1  UNL1        0.0576
     20 C         139.9698  142.9608  170.2607 C.3     1  UNL1        0.0174
     21 C         141.2896  143.6737  170.2796 C.3     1  UNL1        0.0187
     22 C         142.3696  142.6551  170.0644 C.3     1  UNL1        0.0721
     23 N         141.7173  141.3129  169.9126 N.3     1  UNL1       -0.2737
@<TRIPOS>BOND
     1    18    19    1
     2    19    20    1
     3    20    21    1
     4    21    22    1
     5    22    23    1
     6    23    17    1
     7    17    16    1
     8    16     1    1
     9     1     2   ar
    10     2     3   ar
    11     3     4   ar
    12     4     5   ar
    13     5     6   ar
    14     6    11    1
    15    11    12   ar
    16    12    13   ar
    17    13    14   ar
    18    14    15   ar
    19     6     7   ar
    20     7     8   ar
    21     8     9   ar
    22     9    10   ar
    23    23    19    1
    24    10     1   ar
    25     9     4   ar
    26    15    11   ar
@<TRIPOS>MOLECULE
*****
 23 26 0 0 0
SMALL
GASTEIGER

@<TRIPOS>ATOM
      1 C         138.6245  139.9432  163.3992 C.ar    1  UNL1       -0.0207
      2 C         139.5452  141.1103  163.1993 C.ar    1  UNL1       -0.0027
      3 C         140.2457  141.7230  164.3756 C.ar    1  UNL1        0.0188
      4 C         140.0255  141.1686  165.7519 C.ar    1  UNL1        0.0812
      5 N         140.7260  141.7814  166.9283 N.ar    1  UNL1       -0.2453
      6 C         140.5058  141.2270  168.3045 C.ar    1  UNL1        0.0844
      7 C         139.5850  140.0598  168.5044 C.ar    1  UNL1        0.0192
      8 C         138.8845  139.4471  167.3281 C.ar    1  UNL1        0.0030
      9 C         139.1048  140.0015  165.9518 C.ar    1  UNL1        0.0174
     10 C         138.4043  139.3887  164.7755 C.ar    1  UNL1       -0.0027
     11 C         141.2063  141.8397  169.4809 C.ar    1  UNL1        0.0584
     12 C         142.4102  142.7327  169.4232 C.ar    1  UNL1        0.0453
     13 C         142.7738  143.1119  170.8281 C.ar    1  UNL1        0.1798
     14 O         141.7947  142.4533  171.7542 O.2     1  UNL1       -0.4473
     15 C         140.8259  141.6671  170.9215 C.ar    1  UNL1        0.1812
     16 C         137.9240  139.3304  162.2228 C.3     1  UNL1        0.0437
     17 C         138.5409  138.1665  161.5054 C.3     1  UNL1        0.0768
     18 C         140.9489  137.1348  163.4512 C.3     1  UNL1        0.0173
     19 C         141.1116  137.7032  162.0727 C.3     1  UNL1        0.0576
     20 C         142.4097  137.8972  161.3465 C.3     1  UNL1        0.0174
     21 C         142.1051  138.4913  160.0032 C.3     1  UNL1        0.0187
     22 C         140.6187  138.6645  159.8993 C.3     1  UNL1        0.0721
     23 N         140.0048  138.1774  161.1783 N.3     1  UNL1       -0.2737
@<TRIPOS>BOND
     1    18    19    1
     2    19    20    1
     3    20    21    1
     4    21    22    1
     5    22    23    1
     6    23    17    1
     7    17    16    1
     8    16     1    1
     9     1     2   ar
    10     2     3   ar
    11     3     4   ar
    12     4     5   ar
    13     5     6   ar
    14     6    11    1
    15    11    12   ar
    16    12    13   ar
    17    13    14   ar
    18    14    15   ar
    19     6     7   ar
    20     7     8   ar
    21     8     9   ar
    22     9    10   ar
    23    23    19    1
    24    10     1   ar
    25     9     4   ar
    26    15    11   ar
@<TRIPOS>MOLECULE
*****
 23 26 0 0 0
SMALL
GASTEIGER

@<TRIPOS>ATOM
      1 C         143.5297  139.6659  163.4076 C.ar    1  UNL1       -0.0207
      2 C         142.8417  140.9907  163.2617 C.ar    1  UNL1       -0.0027
      3 C         142.2196  141.6484  164.4577 C.ar    1  UNL1        0.0188
      4 C         142.2855  140.9813  165.7995 C.ar    1  UNL1        0.0812
      5 N         141.6634  141.6390  166.9955 N.ar    1  UNL1       -0.2453
      6 C         141.7293  140.9719  168.3374 C.ar    1  UNL1        0.0844
      7 C         142.4174  139.6469  168.4832 C.ar    1  UNL1        0.0192
      8 C         143.0395  138.9893  167.2872 C.ar    1  UNL1        0.0030
      9 C         142.9736  139.6564  165.9454 C.ar    1  UNL1        0.0174
     10 C         143.5957  138.9987  164.7494 C.ar    1  UNL1       -0.0027
     11 C         141.1072  141.6295  169.5333 C.ar    1  UNL1        0.0584
     12 C         140.1466  142.7813  169.5061 C.ar    1  UNL1        0.0453
     13 C         139.7822  143.1145  170.9225 C.ar    1  UNL1        0.1798
     14 O         140.5176  142.1687  171.8251 O.2     1  UNL1       -0.4473
     15 C         141.3365  141.2510  170.9665 C.ar    1  UNL1        0.1812
     16 C         144.1519  139.0081  162.2116 C.3     1  UNL1        0.0437
     17 C         143.4096  137.9315  161.4769 C.3     1  UNL1        0.0768
     18 C         140.9182  137.1176  163.4211 C.3     1  UNL1        0.0173
     19 C         140.8079  137.7309  162.0567 C.3     1  UNL1        0.0576
     20 C         139.5331  138.0777  161.3463 C.3     1  UNL1        0.0174
     21 C         139.8904  138.6662  160.0136 C.3     1  UNL1        0.0187
     22 C         141.3861  138.6830  159.9003 C.3     1  UNL1        0.0721
     23 N         141.9530  138.1050  161.1630 N.3     1  UNL1       -0.2737
@<TRIPOS>BOND
     1    18    19    1
     2    19    20    1
     3    20    21    1
     4    21    22    1
     5    22    23    1
     6    23    17    1
     7    17    16    1
     8    16     1    1
     9     1     2   ar
    10     2     3   ar
    11     3     4   ar
    12     4     5   ar
    13     5     6   ar
    14     6    11    1
    15    11    12   ar
    16    12    13   ar
    17    13    14   ar
    18    14    15   ar
    19     6     7   ar
    20     7     8   ar
    21     8     9   ar
    22     9    10   ar
    23    23    19    1
    24    10     1   ar
    25     9     4   ar
    26    15    11   ar
@<TRIPOS>MOLECULE
*****
 23 26 0 0 0
SMALL
GASTEIGER

@<TRIPOS>ATOM
      1 C         142.2882  138.7838  163.4578 C.ar    1  UNL1       -0.0207
      2 C         141.1829  139.7869  163.3094 C.ar    1  UNL1       -0.0027
      3 C         140.6762  140.5278  164.5111 C.ar    1  UNL1        0.0188
      4 C         141.2750  140.2658  165.8613 C.ar    1  UNL1        0.0812
      5 N         140.7683  141.0068  167.0630 N.ar    1  UNL1       -0.2453
      6 C         141.3671  140.7448  168.4132 C.ar    1  UNL1        0.0844
      7 C         142.4725  139.7417  168.5615 C.ar    1  UNL1        0.0192
      8 C         142.9791  139.0007  167.3598 C.ar    1  UNL1        0.0030
      9 C         142.3804  139.2628  166.0096 C.ar    1  UNL1        0.0174
     10 C         142.8870  138.5218  164.8079 C.ar    1  UNL1       -0.0027
     11 C         140.8605  141.4858  169.6149 C.ar    1  UNL1        0.0584
     12 C         140.0507  142.7483  169.5956 C.ar    1  UNL1        0.0453
     13 C         139.7644  143.1372  171.0157 C.ar    1  UNL1        0.1798
     14 O         140.3973  142.1149  171.9128 O.2     1  UNL1       -0.4473
     15 C         141.0747  141.0944  171.0470 C.ar    1  UNL1        0.1812
     16 C         142.7949  138.0428  162.2560 C.3     1  UNL1        0.0437
     17 C         144.0238  138.5225  161.5422 C.3     1  UNL1        0.0768
     18 C         145.2797  140.8978  163.3941 C.3     1  UNL1        0.0173
     19 C         144.7291  141.0584  162.0081 C.3     1  UNL1        0.0576
     20 C         144.6590  142.3389  161.2301 C.3     1  UNL1        0.0174
     21 C         144.0384  142.0385  159.8979 C.3     1  UNL1        0.0187
     22 C         143.7249  140.5722  159.8527 C.3     1  UNL1        0.0721
     23 N         144.1518  139.9666  161.1569 N.3     1  UNL1       -0.2737
@<TRIPOS>BOND
     1    18    19    1
     2    19    20    1
     3    20    21    1
     4    21    22    1
     5    22    23    1
     6    23    17    1
     7    17    16    1
     8    16     1    1
     9     1     2   ar
    10     2     3   ar
    11     3     4   ar
    12     4     5   ar
    13     5     6   ar
    14     6    11    1
    15    11    12   ar
    16    12    13   ar
    17    13    14   ar
    18    14    15   ar
    19     6     7   ar
    20     7     8   ar
    21     8     9   ar
    22     9    10   ar
    23    23    19    1
    24    10     1   ar
    25     9     4   ar
    26    15    11   ar
@<TRIPOS>MOLECULE
*****
 23 26 0 0 0
SMALL
GASTEIGER

@<TRIPOS>ATOM
      1 C         139.3314  137.6294  164.5342 C.ar    1  UNL1       -0.0207
      2 C         140.8127  137.4396  164.6744 C.ar    1  UNL1       -0.0027
      3 C         141.7029  137.5747  163.4748 C.ar    1  UNL1        0.0188
      4 C         141.1119  137.8995  162.1349 C.ar    1  UNL1        0.0812
      5 N         142.0022  138.0346  160.9353 N.ar    1  UNL1       -0.2453
      6 C         141.4112  138.3594  159.5954 C.ar    1  UNL1        0.0844
      7 C         139.9298  138.5492  159.4553 C.ar    1  UNL1        0.0192
      8 C         139.0395  138.4141  160.6549 C.ar    1  UNL1        0.0030
      9 C         139.6306  138.0893  161.9947 C.ar    1  UNL1        0.0174
     10 C         138.7403  137.9542  163.1944 C.ar    1  UNL1       -0.0027
     11 C         142.3014  138.4945  158.3958 C.ar    1  UNL1        0.0584
     12 C         142.3061  137.5948  157.1955 C.ar    1  UNL1        0.0453
     13 C         143.3508  138.0972  156.2437 C.ar    1  UNL1        0.1798
     14 O         143.9919  139.3074  156.8557 O.2     1  UNL1       -0.4473
     15 C         143.3433  139.5529  158.1858 C.ar    1  UNL1        0.1812
     16 C         138.4410  137.4943  165.7339 C.3     1  UNL1        0.0437
     17 C         138.0147  138.7159  166.4928 C.3     1  UNL1        0.0768
     18 C         138.2249  141.2910  164.4993 C.3     1  UNL1        0.0173
     19 C         139.0544  141.0563  165.7268 C.3     1  UNL1        0.0576
     20 C         140.1261  141.9640  166.2535 C.3     1  UNL1        0.0174
     21 C         140.6919  141.3413  167.4954 C.3     1  UNL1        0.0187
     22 C         139.9698  140.0487  167.7362 C.3     1  UNL1        0.0721
     23 N         138.9578  139.8726  166.6431 N.3     1  UNL1       -0.2737
@<TRIPOS>BOND
     1    18    19    1
     2    19    20    1
     3    20    21    1
     4    21    22    1
     5    22    23    1
     6    23    17    1
     7    17    16    1
     8    16     1    1
     9     1     2   ar
    10     2     3   ar
    11     3     4   ar
    12     4     5   ar
    13     5     6   ar
    14     6    11    1
    15    11    12   ar
    16    12    13   ar
    17    13    14   ar
    18    14    15   ar
    19     6     7   ar
    20     7     8   ar
    21     8     9   ar
    22     9    10   ar
    23    23    19    1
    24    10     1   ar
    25     9     4   ar
    26    15    11   ar
@<TRIPOS>MOLECULE
*****
 23 26 0 0 0
SMALL
GASTEIGER

@<TRIPOS>ATOM
      1 C         139.3306  138.4318  164.0370 C.ar    1  UNL1       -0.0207
      2 C         138.4550  138.4619  165.2546 C.ar    1  UNL1       -0.0027
      3 C         138.8778  139.2431  166.4632 C.ar    1  UNL1        0.0188
      4 C         140.1761  139.9943  166.4543 C.ar    1  UNL1        0.0812
      5 N         140.5988  140.7756  167.6630 N.ar    1  UNL1       -0.2453
      6 C         141.8971  141.5268  167.6541 C.ar    1  UNL1        0.0844
      7 C         142.7727  141.4967  166.4365 C.ar    1  UNL1        0.0192
      8 C         142.3499  140.7155  165.2278 C.ar    1  UNL1        0.0030
      9 C         141.0516  139.9643  165.2367 C.ar    1  UNL1        0.0174
     10 C         140.6289  139.1830  164.0281 C.ar    1  UNL1       -0.0027
     11 C         142.3199  142.3081  168.8627 C.ar    1  UNL1        0.0584
     12 C         143.6998  142.3465  169.4495 C.ar    1  UNL1        0.0453
     13 C         143.6697  143.2503  170.6462 C.ar    1  UNL1        0.1798
     14 O         142.2711  143.7705  170.7991 O.2     1  UNL1       -0.4473
     15 C         141.4369  143.1882  169.6968 C.ar    1  UNL1        0.1812
     16 C         138.9078  137.6505  162.8283 C.3     1  UNL1        0.0437
     17 C         137.8955  138.2234  161.8813 C.3     1  UNL1        0.0768
     18 C         137.3774  141.2471  162.9940 C.3     1  UNL1        0.0173
     19 C         137.9545  140.8864  161.6573 C.3     1  UNL1        0.0576
     20 C         138.3948  141.8521  160.5974 C.3     1  UNL1        0.0174
     21 C         138.9051  141.0591  159.4308 C.3     1  UNL1        0.0187
     22 C         138.7802  139.6032  159.7698 C.3     1  UNL1        0.0721
     23 N         138.1927  139.4965  161.1458 N.3     1  UNL1       -0.2737
@<TRIPOS>BOND
     1    18    19    1
     2    19    20    1
     3    20    21    1
     4    21    22    1
     5    22    23    1
     6    23    17    1
     7    17    16    1
     8    16     1    1
     9     1     2   ar
    10     2     3   ar
    11     3     4   ar
    12     4     5   ar
    13     5     6   ar
    14     6    11    1
    15    11    12   ar
    16    12    13   ar
    17    13    14   ar
    18    14    15   ar
    19     6     7   ar
    20     7     8   ar
    21     8     9   ar
    22     9    10   ar
    23    23    19    1
    24    10     1   ar
    25     9     4   ar
    26    15    11   ar
@<TRIPOS>MOLECULE
*****
 23 26 0 0 0
SMALL
GASTEIGER

@<TRIPOS>ATOM
      1 C         139.5470  140.1604  167.4362 C.ar    1  UNL1       -0.0207
      2 C         140.3106  141.2692  166.7749 C.ar    1  UNL1       -0.0027
      3 C         140.5958  141.2098  165.3035 C.ar    1  UNL1        0.0188
      4 C         140.1174  140.0416  164.4933 C.ar    1  UNL1        0.0812
      5 N         140.4026  139.9822  163.0219 N.ar    1  UNL1       -0.2453
      6 C         139.9242  138.8139  162.2117 C.ar    1  UNL1        0.0844
      7 C         139.1605  137.7051  162.8731 C.ar    1  UNL1        0.0192
      8 C         138.8753  137.7645  164.3445 C.ar    1  UNL1        0.0030
      9 C         139.3537  138.9327  165.1546 C.ar    1  UNL1        0.0174
     10 C         139.0685  138.9922  166.6260 C.ar    1  UNL1       -0.0027
     11 C         140.2094  138.7545  160.7403 C.ar    1  UNL1        0.0584
     12 C         141.5456  138.4929  160.1111 C.ar    1  UNL1        0.0453
     13 C         141.3705  138.5229  158.6217 C.ar    1  UNL1        0.1798
     14 O         139.9259  138.8031  158.3304 O.2     1  UNL1       -0.4473
     15 C         139.2083  138.9462  159.6398 C.ar    1  UNL1        0.1812
     16 C         139.2617  140.2198  168.9076 C.3     1  UNL1        0.0437
     17 C         140.3772  140.0469  169.8954 C.3     1  UNL1        0.0768
     18 C         140.0211  143.2462  170.4311 C.3     1  UNL1        0.0173
     19 C         141.3194  142.5287  170.2087 C.3     1  UNL1        0.0576
     20 C         142.6819  143.1558  170.1936 C.3     1  UNL1        0.0174
     21 C         143.6878  142.0727  169.9379 C.3     1  UNL1        0.0187
     22 C         142.9469  140.7763  169.7951 C.3     1  UNL1        0.0721
     23 N         141.4831  141.0582  169.9625 N.3     1  UNL1       -0.2737
@<TRIPOS>BOND
     1    18    19    1
     2    19    20    1
     3    20    21    1
     4    21    22    1
     5    22    23    1
     6    23    17    1
     7    17    16    1
     8    16     1    1
     9     1     2   ar
    10     2     3   ar
    11     3     4   ar
    12     4     5   ar
    13     5     6   ar
    14     6    11    1
    15    11    12   ar
    16    12    13   ar
    17    13    14   ar
    18    14    15   ar
    19     6     7   ar
    20     7     8   ar
    21     8     9   ar
    22     9    10   ar
    23    23    19    1
    24    10     1   ar
    25     9     4   ar
    26    15    11   ar
@<TRIPOS>MOLECULE
*****
 23 26 0 0 0
SMALL
GASTEIGER

@<TRIPOS>ATOM
      1 C         140.3116  145.1646  163.1812 C.ar    1  UNL1       -0.0207
      2 C         139.1553  144.7628  164.0480 C.ar    1  UNL1       -0.0027
      3 C         139.3751  143.8434  165.2126 C.ar    1  UNL1        0.0188
      4 C         140.7511  143.3258  165.5103 C.ar    1  UNL1        0.0812
      5 N         140.9708  142.4063  166.6750 N.ar    1  UNL1       -0.2453
      6 C         142.3469  141.8888  166.9727 C.ar    1  UNL1        0.0844
      7 C         143.5032  142.2907  166.1058 C.ar    1  UNL1        0.0192
      8 C         143.2834  143.2101  164.9412 C.ar    1  UNL1        0.0030
      9 C         141.9074  143.7277  164.6435 C.ar    1  UNL1        0.0174
     10 C         141.6876  144.6471  163.4789 C.ar    1  UNL1       -0.0027
     11 C         142.5667  140.9694  168.1373 C.ar    1  UNL1        0.0584
     12 C         142.7516  141.3855  169.5666 C.ar    1  UNL1        0.0453
     13 C         142.9393  140.1457  170.3898 C.ar    1  UNL1        0.1798
     14 O         142.8704  138.9633  169.4692 O.2     1  UNL1       -0.4473
     15 C         142.6400  139.4724  168.0772 C.ar    1  UNL1        0.1812
     16 C         140.0919  146.0841  162.0165 C.3     1  UNL1        0.0437
     17 C         140.0104  145.5271  160.6262 C.3     1  UNL1        0.0768
     18 C         138.4800  142.6703  161.0084 C.3     1  UNL1        0.0173
     19 C         139.8789  142.8602  160.5015 C.3     1  UNL1        0.0576
     20 C         140.8200  141.7703  160.0813 C.3     1  UNL1        0.0174
     21 C         142.1051  142.4099  159.6459 C.3     1  UNL1        0.0187
     22 C         141.9582  143.8951  159.7971 C.3     1  UNL1        0.0721
     23 N         140.5823  144.1733  160.3258 N.3     1  UNL1       -0.2737
@<TRIPOS>BOND
     1    18    19    1
     2    19    20    1
     3    20    21    1
     4    21    22    1
     5    22    23    1
     6    23    17    1
     7    17    16    1
     8    16     1    1
     9     1     2   ar
    10     2     3   ar
    11     3     4   ar
    12     4     5   ar
    13     5     6   ar
    14     6    11    1
    15    11    12   ar
    16    12    13   ar
    17    13    14   ar
    18    14    15   ar
    19     6     7   ar
    20     7     8   ar
    21     8     9   ar
    22     9    10   ar
    23    23    19    1
    24    10     1   ar
    25     9     4   ar
    26    15    11   ar
@<TRIPOS>MOLECULE
*****
 23 26 0 0 0
SMALL
GASTEIGER

@<TRIPOS>ATOM
      1 C         142.7098  138.4419  165.2571 C.ar    1  UNL1       -0.0207
      2 C         141.5306  137.5882  164.8956 C.ar    1  UNL1       -0.0027
      3 C         141.2060  137.3292  163.4542 C.ar    1  UNL1        0.0188
      4 C         142.0606  137.9239  162.3744 C.ar    1  UNL1        0.0812
      5 N         141.7359  137.6649  160.9330 N.ar    1  UNL1       -0.2453
      6 C         142.5905  138.2596  159.8531 C.ar    1  UNL1        0.0844
      7 C         143.7697  139.1133  160.2147 C.ar    1  UNL1        0.0192
      8 C         144.0943  139.3723  161.6560 C.ar    1  UNL1        0.0030
      9 C         143.2398  138.7776  162.7359 C.ar    1  UNL1        0.0174
     10 C         143.5644  139.0366  164.1772 C.ar    1  UNL1       -0.0027
     11 C         142.2659  138.0006  158.4118 C.ar    1  UNL1        0.0584
     12 C         142.7882  136.8666  157.5804 C.ar    1  UNL1        0.0453
     13 C         142.2071  136.9952  156.2035 C.ar    1  UNL1        0.1798
     14 O         141.3256  138.2088  156.1840 O.2     1  UNL1       -0.4473
     15 C         141.3619  138.8301  157.5488 C.ar    1  UNL1        0.1812
     16 C         143.0345  138.7009  166.6985 C.3     1  UNL1        0.0437
     17 C         142.6487  140.0049  167.3315 C.3     1  UNL1        0.0768
     18 C         139.4744  140.2467  166.6140 C.3     1  UNL1        0.0173
     19 C         140.0633  140.1652  167.9912 C.3     1  UNL1        0.0576
     20 C         139.2965  140.1805  169.2803 C.3     1  UNL1        0.0174
     21 C         140.2817  140.0788  170.4069 C.3     1  UNL1        0.0187
     22 C         141.6574  140.0006  169.8139 C.3     1  UNL1        0.0721
     23 N         141.5223  140.0540  168.3210 N.3     1  UNL1       -0.2737
@<TRIPOS>BOND
     1    18    19    1
     2    19    20    1
     3    20    21    1
     4    21    22    1
     5    22    23    1
     6    23    17    1
     7    17    16    1
     8    16     1    1
     9     1     2   ar
    10     2     3   ar
    11     3     4   ar
    12     4     5   ar
    13     5     6   ar
    14     6    11    1
    15    11    12   ar
    16    12    13   ar
    17    13    14   ar
    18    14    15   ar
    19     6     7   ar
    20     7     8   ar
    21     8     9   ar
    22     9    10   ar
    23    23    19    1
    24    10     1   ar
    25     9     4   ar
    26    15    11   ar
