@<TRIPOS>MOLECULE
*****
 33 37 0 0 0
SMALL
GASTEIGER

@<TRIPOS>ATOM
      1 N         143.1800  143.2906  161.9964 N.3     1  UNL1       -0.2726
      2 C         144.4466  142.8780  161.3068 C.3     1  UNL1        0.0721
      3 C         145.1675  141.9127  162.2003 C.3     1  UNL1        0.0190
      4 C         144.3465  141.7287  163.4421 C.3     1  UNL1        0.0201
      5 C         145.2800  140.7595  164.1050 C.3     1  UNL1        0.0061
      6 C         144.0134  141.1721  164.7946 C.3     1  UNL1        0.0237
      7 C         143.1182  142.5803  163.3161 C.3     1  UNL1        0.0724
      8 C         143.0898  141.0889  165.9736 C.ar    1  UNL1       -0.0225
      9 C         143.0182  142.2238  166.9518 C.ar    1  UNL1       -0.0043
     10 C         142.0946  142.1406  168.1308 C.ar    1  UNL1        0.0035
     11 C         141.2426  140.9225  168.3315 C.ar    1  UNL1        0.0714
     12 C         141.3141  139.7876  167.3533 C.ar    1  UNL1        0.0035
     13 C         142.2377  139.8708  166.1743 C.ar    1  UNL1       -0.0043
     14 C         140.3190  140.8393  169.5105 C.3     1  UNL1        0.4186
     15 F         139.3953  140.7562  170.6895 F       1  UNL1       -0.1659
     16 F         141.4678  141.1276  170.4308 F       1  UNL1       -0.1659
     17 F         139.1701  140.5511  168.5902 F       1  UNL1       -0.1659
     18 C         142.1551  144.2458  161.4604 C.3     1  UNL1        0.0730
     19 C         141.4468  145.1855  162.3906 C.3     1  UNL1        0.0294
     20 C         140.0495  145.6353  162.0817 C.3     1  UNL1        0.0666
     21 S         138.9026  145.1465  162.9158 S.3     1  UNL1       -0.0756
     22 C         139.8675  142.8101  164.9798 C.3     1  UNL1        0.1340
     23 N         138.9430  142.6287  163.8126 N.ar    1  UNL1       -0.2884
     24 C         138.4994  143.7026  162.8639 C.ar    1  UNL1        0.1932
     25 N         137.5819  143.0792  161.8542 N.ar    1  UNL1       -0.1221
     26 N         137.4584  141.6200  162.1788 N.ar    1  UNL1       -0.1282
     27 C         138.2995  141.3415  163.3892 C.ar    1  UNL1        0.1683
     28 C         138.4677  140.0097  164.0586 C.ar    1  UNL1        0.0551
     29 C         138.0386  139.8274  165.4843 C.ar    1  UNL1        0.0062
     30 C         138.2068  138.4956  166.1537 C.ar    1  UNL1        0.0208
     31 C         138.8042  137.3462  165.3973 C.ar    1  UNL1        0.0989
     32 N         139.2334  137.5285  163.9716 N.ar    1  UNL1       -0.2422
     33 C         139.0651  138.8604  163.3023 C.ar    1  UNL1        0.1019
@<TRIPOS>BOND
     1    22    23    1
     2    23    24   ar
     3    24    21    1
     4    21    20    1
     5    20    19    1
     6    19    18    1
     7    18     1    1
     8     1     2    1
     9     2     3    1
    10     4     3    1
    11     4     5    1
    12     5     6    1
    13     6     8    1
    14     8     9   ar
    15     9    10   ar
    16    10    11   ar
    17    11    14    1
    18    14    15    1
    19    14    16    1
    20    14    17    1
    21    11    12   ar
    22    12    13   ar
    23     4     7    1
    24    24    25   ar
    25    25    26   ar
    26    26    27   ar
    27    27    28    1
    28    28    29   ar
    29    29    30   ar
    30    30    31   ar
    31    31    32   ar
    32    32    33   ar
    33    27    23   ar
    34    33    28   ar
    35     7     1    1
    36     6     4    1
    37    13     8   ar
@<TRIPOS>MOLECULE
*****
 33 37 0 0 0
SMALL
GASTEIGER

@<TRIPOS>ATOM
      1 N         141.2909  138.0537  163.4256 N.3     1  UNL1       -0.2726
      2 C         139.9786  137.4478  163.0246 C.3     1  UNL1        0.0721
      3 C         138.9513  137.8539  164.0393 C.3     1  UNL1        0.0190
      4 C         139.6286  138.7107  165.0675 C.3     1  UNL1        0.0201
      5 C         138.4062  138.9481  165.9038 C.3     1  UNL1        0.0061
      6 C         139.7185  139.5539  166.3048 C.3     1  UNL1        0.0237
      7 C         141.0746  138.8342  164.6881 C.3     1  UNL1        0.0724
      8 C         140.5281  140.3906  167.2506 C.ar    1  UNL1       -0.0225
      9 C         141.7060  139.7923  167.9610 C.ar    1  UNL1       -0.0043
     10 C         142.5156  140.6289  168.9069 C.ar    1  UNL1        0.0035
     11 C         142.1473  142.0638  169.1423 C.ar    1  UNL1        0.0714
     12 C         140.9693  142.6620  168.4319 C.ar    1  UNL1        0.0035
     13 C         140.1598  141.8254  167.4860 C.ar    1  UNL1       -0.0043
     14 C         142.9568  142.9004  170.0881 C.3     1  UNL1        0.4186
     15 F         143.7665  143.7370  171.0340 F       1  UNL1       -0.1659
     16 F         141.8173  143.8685  170.2072 F       1  UNL1       -0.1659
     17 F         144.0964  141.9323  169.9690 F       1  UNL1       -0.1659
     18 C         142.5912  137.9051  162.6927 C.3     1  UNL1        0.0730
     19 C         142.7710  138.5435  161.3473 C.3     1  UNL1        0.0294
     20 C         144.0439  139.2688  161.0253 C.3     1  UNL1        0.0666
     21 S         144.1887  140.7205  161.3741 S.3     1  UNL1       -0.0756
     22 C         141.1644  141.9287  161.1661 C.3     1  UNL1        0.1340
     23 N         142.0024  141.8587  162.4082 N.ar    1  UNL1       -0.2884
     24 C         143.3925  141.3033  162.5039 C.ar    1  UNL1        0.1932
     25 N         143.8466  141.4331  163.9276 N.ar    1  UNL1       -0.1221
     26 N         142.7371  142.0687  164.7119 N.ar    1  UNL1       -0.1282
     27 C         141.5973  142.3318  163.7729 C.ar    1  UNL1        0.1683
     28 C         140.2832  142.9579  164.1350 C.ar    1  UNL1        0.0551
     29 C         139.0100  142.1847  163.9584 C.ar    1  UNL1        0.0062
     30 C         137.6959  142.8108  164.3205 C.ar    1  UNL1        0.0208
     31 C         137.6551  144.2102  164.8591 C.ar    1  UNL1        0.0989
     32 N         138.9282  144.9834  165.0357 N.ar    1  UNL1       -0.2422
     33 C         140.2423  144.3572  164.6736 C.ar    1  UNL1        0.1019
@<TRIPOS>BOND
     1    22    23    1
     2    23    24   ar
     3    24    21    1
     4    21    20    1
     5    20    19    1
     6    19    18    1
     7    18     1    1
     8     1     2    1
     9     2     3    1
    10     4     3    1
    11     4     5    1
    12     5     6    1
    13     6     8    1
    14     8     9   ar
    15     9    10   ar
    16    10    11   ar
    17    11    14    1
    18    14    15    1
    19    14    16    1
    20    14    17    1
    21    11    12   ar
    22    12    13   ar
    23     4     7    1
    24    24    25   ar
    25    25    26   ar
    26    26    27   ar
    27    27    28    1
    28    28    29   ar
    29    29    30   ar
    30    30    31   ar
    31    31    32   ar
    32    32    33   ar
    33    27    23   ar
    34    33    28   ar
    35     7     1    1
    36     6     4    1
    37    13     8   ar
@<TRIPOS>MOLECULE
*****
 33 37 0 0 0
SMALL
GASTEIGER

@<TRIPOS>ATOM
      1 N         142.8053  138.8164  163.4326 N.3     1  UNL1       -0.2726
      2 C         143.9793  139.1120  162.5469 C.3     1  UNL1        0.0721
      3 C         144.6242  140.3740  163.0381 C.3     1  UNL1        0.0190
      4 C         143.8489  140.8584  164.2274 C.3     1  UNL1        0.0201
      5 C         144.6929  142.0722  164.4811 C.3     1  UNL1        0.0061
      6 C         143.5189  141.7766  165.3667 C.3     1  UNL1        0.0237
      7 C         142.7247  139.8957  164.4712 C.3     1  UNL1        0.0724
      8 C         142.6506  142.1360  166.5358 C.ar    1  UNL1       -0.0225
      9 C         141.2139  142.5075  166.3169 C.ar    1  UNL1       -0.0043
     10 C         140.3456  142.8669  167.4860 C.ar    1  UNL1        0.0035
     11 C         140.9140  142.8548  168.8741 C.ar    1  UNL1        0.0714
     12 C         142.3507  142.4832  169.0930 C.ar    1  UNL1        0.0035
     13 C         143.2190  142.1238  167.9239 C.ar    1  UNL1       -0.0043
     14 C         140.0457  143.2142  170.0432 C.3     1  UNL1        0.4186
     15 F         139.1773  143.5735  171.2124 F       1  UNL1       -0.1659
     16 F         140.6747  144.5750  170.0920 F       1  UNL1       -0.1659
     17 F         139.4166  141.8533  169.9943 F       1  UNL1       -0.1659
     18 C         141.8752  137.6468  163.3025 C.3     1  UNL1        0.0730
     19 C         141.1925  137.0927  164.5178 C.3     1  UNL1        0.0294
     20 C         139.8069  137.5455  164.8717 C.3     1  UNL1        0.0666
     21 S         138.9560  138.2300  163.8434 S.3     1  UNL1       -0.0756
     22 C         140.1991  140.2722  161.6222 C.3     1  UNL1        0.1340
     23 N         139.3992  140.6632  162.8294 N.ar    1  UNL1       -0.2884
     24 C         138.8278  139.7245  163.8504 C.ar    1  UNL1        0.1932
     25 N         138.1057  140.5426  164.8796 N.ar    1  UNL1       -0.1221
     26 N         138.2308  141.9870  164.4947 N.ar    1  UNL1       -0.1282
     27 C         139.0302  142.0616  163.2276 C.ar    1  UNL1        0.1683
     28 C         139.3964  143.3144  162.4886 C.ar    1  UNL1        0.0551
     29 C         139.8828  144.5157  163.2437 C.ar    1  UNL1        0.0062
     30 C         140.2489  145.7686  162.5047 C.ar    1  UNL1        0.0208
     31 C         140.1286  145.8201  161.0103 C.ar    1  UNL1        0.0989
     32 N         139.6422  144.6188  160.2551 N.ar    1  UNL1       -0.2422
     33 C         139.2761  143.3660  160.9943 C.ar    1  UNL1        0.1019
@<TRIPOS>BOND
     1    22    23    1
     2    23    24   ar
     3    24    21    1
     4    21    20    1
     5    20    19    1
     6    19    18    1
     7    18     1    1
     8     1     2    1
     9     2     3    1
    10     4     3    1
    11     4     5    1
    12     5     6    1
    13     6     8    1
    14     8     9   ar
    15     9    10   ar
    16    10    11   ar
    17    11    14    1
    18    14    15    1
    19    14    16    1
    20    14    17    1
    21    11    12   ar
    22    12    13   ar
    23     4     7    1
    24    24    25   ar
    25    25    26   ar
    26    26    27   ar
    27    27    28    1
    28    28    29   ar
    29    29    30   ar
    30    30    31   ar
    31    31    32   ar
    32    32    33   ar
    33    27    23   ar
    34    33    28   ar
    35     7     1    1
    36     6     4    1
    37    13     8   ar
@<TRIPOS>MOLECULE
*****
 33 37 0 0 0
SMALL
GASTEIGER

@<TRIPOS>ATOM
      1 N         138.1891  140.5778  163.3355 N.3     1  UNL1       -0.2726
      2 C         138.0948  139.2300  162.6839 C.3     1  UNL1        0.0721
      3 C         138.9980  138.2914  163.4278 C.3     1  UNL1        0.0190
      4 C         139.6503  139.0591  164.5391 C.3     1  UNL1        0.0201
      5 C         140.4521  137.9097  165.0740 C.3     1  UNL1        0.0061
      6 C         140.5463  139.2575  165.7257 C.3     1  UNL1        0.0237
      7 C         139.1504  140.4721  164.4821 C.3     1  UNL1        0.0724
      8 C         141.1180  140.1502  166.7869 C.ar    1  UNL1       -0.0225
      9 C         140.3405  140.4166  168.0417 C.ar    1  UNL1       -0.0043
     10 C         140.9121  141.3093  169.1030 C.ar    1  UNL1        0.0035
     11 C         142.2613  141.9356  168.9094 C.ar    1  UNL1        0.0714
     12 C         143.0389  141.6691  167.6546 C.ar    1  UNL1        0.0035
     13 C         142.4672  140.7764  166.5934 C.ar    1  UNL1       -0.0043
     14 C         142.8330  142.8282  169.9706 C.3     1  UNL1        0.4186
     15 F         143.4047  143.7210  171.0320 F       1  UNL1       -0.1659
     16 F         144.0775  141.9915  170.0042 F       1  UNL1       -0.1659
     17 F         141.5886  143.6650  169.9371 F       1  UNL1       -0.1659
     18 C         137.4514  141.8142  162.9145 C.3     1  UNL1        0.0730
     19 C         137.5681  143.0701  163.7263 C.3     1  UNL1        0.0294
     20 C         137.7025  144.3971  163.0400 C.3     1  UNL1        0.0666
     21 S         139.0537  144.8848  162.6083 S.3     1  UNL1       -0.0756
     22 C         141.1145  143.4815  164.7139 C.3     1  UNL1        0.1340
     23 N         141.0787  143.2550  163.2315 N.ar    1  UNL1       -0.2884
     24 C         140.1314  143.9000  162.2636 C.ar    1  UNL1        0.1932
     25 N         140.4511  143.3875  160.8907 N.ar    1  UNL1       -0.1221
     26 N         141.5960  142.4257  161.0099 N.ar    1  UNL1       -0.1282
     27 C         141.9839  142.3438  162.4566 C.ar    1  UNL1        0.1683
     28 C         143.0838  141.4990  163.0281 C.ar    1  UNL1        0.0551
     29 C         142.9422  140.0061  163.0623 C.ar    1  UNL1        0.0062
     30 C         144.0421  139.1613  163.6338 C.ar    1  UNL1        0.0208
     31 C         145.2836  139.8095  164.1711 C.ar    1  UNL1        0.0989
     32 N         145.4251  141.3025  164.1369 N.ar    1  UNL1       -0.2422
     33 C         144.3252  142.1472  163.5654 C.ar    1  UNL1        0.1019
@<TRIPOS>BOND
     1    22    23    1
     2    23    24   ar
     3    24    21    1
     4    21    20    1
     5    20    19    1
     6    19    18    1
     7    18     1    1
     8     1     2    1
     9     2     3    1
    10     4     3    1
    11     4     5    1
    12     5     6    1
    13     6     8    1
    14     8     9   ar
    15     9    10   ar
    16    10    11   ar
    17    11    14    1
    18    14    15    1
    19    14    16    1
    20    14    17    1
    21    11    12   ar
    22    12    13   ar
    23     4     7    1
    24    24    25   ar
    25    25    26   ar
    26    26    27   ar
    27    27    28    1
    28    28    29   ar
    29    29    30   ar
    30    30    31   ar
    31    31    32   ar
    32    32    33   ar
    33    27    23   ar
    34    33    28   ar
    35     7     1    1
    36     6     4    1
    37    13     8   ar
@<TRIPOS>MOLECULE
*****
 33 37 0 0 0
SMALL
GASTEIGER

@<TRIPOS>ATOM
      1 N         141.5105  138.2208  163.3114 N.3     1  UNL1       -0.2726
      2 C         140.2551  137.4891  162.9391 C.3     1  UNL1        0.0721
      3 C         139.2395  137.7338  164.0155 C.3     1  UNL1        0.0190
      4 C         139.8672  138.6167  165.0531 C.3     1  UNL1        0.0201
      5 C         138.6680  138.6795  165.9518 C.3     1  UNL1        0.0061
      6 C         139.9234  139.4112  166.3242 C.3     1  UNL1        0.0237
      7 C         141.2708  138.9177  164.6179 C.3     1  UNL1        0.0724
      8 C         140.6806  140.2923  167.2729 C.ar    1  UNL1       -0.0225
      9 C         140.3090  141.7389  167.4118 C.ar    1  UNL1       -0.0043
     10 C         141.0662  142.6200  168.3606 C.ar    1  UNL1        0.0035
     11 C         142.1950  142.0545  169.1705 C.ar    1  UNL1        0.0714
     12 C         142.5667  140.6079  169.0316 C.ar    1  UNL1        0.0035
     13 C         141.8094  139.7268  168.0828 C.ar    1  UNL1       -0.0043
     14 C         142.9523  142.9356  170.1193 C.3     1  UNL1        0.4186
     15 F         143.7095  143.8168  171.0682 F       1  UNL1       -0.1659
     16 F         144.1401  142.0255  170.0166 F       1  UNL1       -0.1659
     17 F         141.7644  143.8458  170.2220 F       1  UNL1       -0.1659
     18 C         142.7824  138.2504  162.5168 C.3     1  UNL1        0.0730
     19 C         142.8286  137.6300  161.1519 C.3     1  UNL1        0.0294
     20 C         143.1821  138.4675  159.9587 C.3     1  UNL1        0.0666
     21 S         142.0992  139.1321  159.1616 S.3     1  UNL1       -0.0756
     22 C         141.8772  141.6615  161.2116 C.3     1  UNL1        0.1340
     23 N         140.7484  140.7702  160.7855 N.ar    1  UNL1       -0.2884
     24 C         140.8505  139.6076  159.8432 C.ar    1  UNL1        0.1932
     25 N         139.4846  139.0039  159.7021 N.ar    1  UNL1       -0.1221
     26 N         138.5383  139.7934  160.5573 N.ar    1  UNL1       -0.1282
     27 C         139.3194  140.8851  161.2269 C.ar    1  UNL1        0.1683
     28 C         138.7682  141.9113  162.1719 C.ar    1  UNL1        0.0551
     29 C         138.5780  141.5715  163.6205 C.ar    1  UNL1        0.0062
     30 C         138.0269  142.5978  164.5654 C.ar    1  UNL1        0.0208
     31 C         137.6659  143.9639  164.0617 C.ar    1  UNL1        0.0989
     32 N         137.8560  144.3036  162.6132 N.ar    1  UNL1       -0.2422
     33 C         138.4072  143.2773  161.6682 C.ar    1  UNL1        0.1019
@<TRIPOS>BOND
     1    22    23    1
     2    23    24   ar
     3    24    21    1
     4    21    20    1
     5    20    19    1
     6    19    18    1
     7    18     1    1
     8     1     2    1
     9     2     3    1
    10     4     3    1
    11     4     5    1
    12     5     6    1
    13     6     8    1
    14     8     9   ar
    15     9    10   ar
    16    10    11   ar
    17    11    14    1
    18    14    15    1
    19    14    16    1
    20    14    17    1
    21    11    12   ar
    22    12    13   ar
    23     4     7    1
    24    24    25   ar
    25    25    26   ar
    26    26    27   ar
    27    27    28    1
    28    28    29   ar
    29    29    30   ar
    30    30    31   ar
    31    31    32   ar
    32    32    33   ar
    33    27    23   ar
    34    33    28   ar
    35     7     1    1
    36     6     4    1
    37    13     8   ar
@<TRIPOS>MOLECULE
*****
 33 37 0 0 0
SMALL
GASTEIGER

@<TRIPOS>ATOM
      1 N         143.0930  143.7568  163.5501 N.3     1  UNL1       -0.2726
      2 C         142.8009  145.1967  163.2482 C.3     1  UNL1        0.0721
      3 C         141.3660  145.4614  163.5960 C.3     1  UNL1        0.0190
      4 C         140.7712  144.1850  164.1129 C.3     1  UNL1        0.0201
      5 C         139.4008  144.7409  164.3636 C.3     1  UNL1        0.0061
      6 C         139.6928  143.3009  164.6655 C.3     1  UNL1        0.0237
      7 C         141.8386  143.1315  164.0845 C.3     1  UNL1        0.0724
      8 C         139.2389  141.9591  165.1589 C.ar    1  UNL1       -0.0225
      9 C         138.2443  141.1652  164.3648 C.ar    1  UNL1       -0.0043
     10 C         137.7904  139.8233  164.8582 C.ar    1  UNL1        0.0035
     11 C         138.3310  139.2755  166.1457 C.ar    1  UNL1        0.0714
     12 C         139.3256  140.0694  166.9397 C.ar    1  UNL1        0.0035
     13 C         139.7795  141.4112  166.4463 C.ar    1  UNL1       -0.0043
     14 C         137.8770  137.9337  166.6391 C.3     1  UNL1        0.4186
     15 F         137.4231  136.5918  167.1325 F       1  UNL1       -0.1659
     16 F         138.5191  137.2798  165.4515 F       1  UNL1       -0.1659
     17 F         137.2350  138.5875  167.8266 F       1  UNL1       -0.1659
     18 C         144.4085  143.0637  163.3524 C.3     1  UNL1        0.0730
     19 C         144.9009  142.0833  164.3753 C.3     1  UNL1        0.0294
     20 C         145.6339  140.8492  163.9396 C.3     1  UNL1        0.0666
     21 S         144.9155  139.5342  163.8733 S.3     1  UNL1       -0.0756
     22 C         143.4915  140.5001  161.1004 C.3     1  UNL1        0.1340
     23 N         142.7909  139.9409  162.3031 N.ar    1  UNL1       -0.2884
     24 C         143.4454  139.4969  163.5776 C.ar    1  UNL1        0.1932
     25 N         142.3718  139.0090  164.5046 N.ar    1  UNL1       -0.1221
     26 N         141.0537  139.1515  163.8030 N.ar    1  UNL1       -0.1282
     27 C         141.3126  139.7274  162.4423 C.ar    1  UNL1        0.1683
     28 C         140.2755  140.0357  161.4034 C.ar    1  UNL1        0.0551
     29 C         139.8348  141.4521  161.1808 C.ar    1  UNL1        0.0062
     30 C         138.7977  141.7604  160.1419 C.ar    1  UNL1        0.0208
     31 C         138.2012  140.6522  159.3256 C.ar    1  UNL1        0.0989
     32 N         138.6419  139.2358  159.5483 N.ar    1  UNL1       -0.2422
     33 C         139.6790  138.9276  160.5872 C.ar    1  UNL1        0.1019
@<TRIPOS>BOND
     1    22    23    1
     2    23    24   ar
     3    24    21    1
     4    21    20    1
     5    20    19    1
     6    19    18    1
     7    18     1    1
     8     1     2    1
     9     2     3    1
    10     4     3    1
    11     4     5    1
    12     5     6    1
    13     6     8    1
    14     8     9   ar
    15     9    10   ar
    16    10    11   ar
    17    11    14    1
    18    14    15    1
    19    14    16    1
    20    14    17    1
    21    11    12   ar
    22    12    13   ar
    23     4     7    1
    24    24    25   ar
    25    25    26   ar
    26    26    27   ar
    27    27    28    1
    28    28    29   ar
    29    29    30   ar
    30    30    31   ar
    31    31    32   ar
    32    32    33   ar
    33    27    23   ar
    34    33    28   ar
    35     7     1    1
    36     6     4    1
    37    13     8   ar
@<TRIPOS>MOLECULE
*****
 33 37 0 0 0
SMALL
GASTEIGER

@<TRIPOS>ATOM
      1 N         137.9851  141.5737  162.5667 N.3     1  UNL1       -0.2726
      2 C         137.6331  140.5315  161.5470 C.3     1  UNL1        0.0721
      3 C         138.0169  139.1919  162.1019 C.3     1  UNL1        0.0190
      4 C         138.6062  139.4061  163.4646 C.3     1  UNL1        0.0201
      5 C         138.8788  137.9584  163.7470 C.3     1  UNL1        0.0061
      6 C         139.2308  139.0006  164.7667 C.3     1  UNL1        0.0237
      7 C         138.5866  140.8782  163.7518 C.3     1  UNL1        0.0724
      8 C         139.7947  139.3683  166.1072 C.ar    1  UNL1       -0.0225
      9 C         141.2776  139.5087  166.2842 C.ar    1  UNL1       -0.0043
     10 C         141.8414  139.8763  167.6246 C.ar    1  UNL1        0.0035
     11 C         140.9223  140.1035  168.7881 C.ar    1  UNL1        0.0714
     12 C         139.4394  139.9631  168.6111 C.ar    1  UNL1        0.0035
     13 C         138.8756  139.5955  167.2707 C.ar    1  UNL1       -0.0043
     14 C         141.4862  140.4712  170.1286 C.3     1  UNL1        0.4186
     15 F         142.0501  140.8388  171.4691 F       1  UNL1       -0.1659
     16 F         140.4810  141.5781  170.2478 F       1  UNL1       -0.1659
     17 F         142.4914  139.3643  170.0093 F       1  UNL1       -0.1659
     18 C         137.7730  143.0520  162.4260 C.3     1  UNL1        0.0730
     19 C         138.4606  144.0008  163.3624 C.3     1  UNL1        0.0294
     20 C         139.2121  145.1793  162.8180 C.3     1  UNL1        0.0666
     21 S         140.7121  145.1726  162.8077 S.3     1  UNL1       -0.0756
     22 C         141.0783  142.6938  160.7170 C.3     1  UNL1        0.1340
     23 N         141.6264  142.7592  162.1117 N.ar    1  UNL1       -0.2884
     24 C         141.4581  143.8986  163.0727 C.ar    1  UNL1        0.1932
     25 N         142.1669  143.5403  164.3453 N.ar    1  UNL1       -0.1221
     26 N         142.7732  142.1795  164.1708 N.ar    1  UNL1       -0.1282
     27 C         142.4393  141.6967  162.7904 C.ar    1  UNL1        0.1683
     28 C         142.8465  140.3822  162.1934 C.ar    1  UNL1        0.0551
     29 C         142.2290  139.1090  162.6910 C.ar    1  UNL1        0.0062
     30 C         142.6363  137.7946  162.0941 C.ar    1  UNL1        0.0208
     31 C         143.6612  137.7534  160.9995 C.ar    1  UNL1        0.0989
     32 N         144.2788  139.0266  160.5020 N.ar    1  UNL1       -0.2422
     33 C         143.8714  140.3410  161.0990 C.ar    1  UNL1        0.1019
@<TRIPOS>BOND
     1    22    23    1
     2    23    24   ar
     3    24    21    1
     4    21    20    1
     5    20    19    1
     6    19    18    1
     7    18     1    1
     8     1     2    1
     9     2     3    1
    10     4     3    1
    11     4     5    1
    12     5     6    1
    13     6     8    1
    14     8     9   ar
    15     9    10   ar
    16    10    11   ar
    17    11    14    1
    18    14    15    1
    19    14    16    1
    20    14    17    1
    21    11    12   ar
    22    12    13   ar
    23     4     7    1
    24    24    25   ar
    25    25    26   ar
    26    26    27   ar
    27    27    28    1
    28    28    29   ar
    29    29    30   ar
    30    30    31   ar
    31    31    32   ar
    32    32    33   ar
    33    27    23   ar
    34    33    28   ar
    35     7     1    1
    36     6     4    1
    37    13     8   ar
@<TRIPOS>MOLECULE
*****
 33 37 0 0 0
SMALL
GASTEIGER

@<TRIPOS>ATOM
      1 N         143.6335  143.7023  164.5042 N.3     1  UNL1       -0.2726
      2 C         143.4118  145.0747  163.9408 C.3     1  UNL1        0.0721
      3 C         141.9328  145.2898  163.8131 C.3     1  UNL1        0.0190
      4 C         141.2405  144.0505  164.2975 C.3     1  UNL1        0.0201
      5 C         139.8453  144.5465  164.0581 C.3     1  UNL1        0.0061
      6 C         140.0670  143.1740  164.6214 C.3     1  UNL1        0.0237
      7 C         142.2916  143.0693  164.7246 C.3     1  UNL1        0.0724
      8 C         139.5175  141.8757  165.1336 C.ar    1  UNL1       -0.0225
      9 C         138.5839  141.0682  164.2815 C.ar    1  UNL1       -0.0043
     10 C         138.0344  139.7698  164.7937 C.ar    1  UNL1        0.0035
     11 C         138.4186  139.2790  166.1581 C.ar    1  UNL1        0.0714
     12 C         139.3523  140.0866  167.0102 C.ar    1  UNL1        0.0035
     13 C         139.9018  141.3849  166.4980 C.ar    1  UNL1       -0.0043
     14 C         137.8692  137.9807  166.6703 C.3     1  UNL1        0.4186
     15 F         137.3197  136.6823  167.1825 F       1  UNL1       -0.1659
     16 F         137.2872  138.6942  167.8545 F       1  UNL1       -0.1659
     17 F         138.4511  137.2673  165.4861 F       1  UNL1       -0.1659
     18 C         144.9636  143.0732  164.7958 C.3     1  UNL1        0.0730
     19 C         145.5270  142.0431  163.8623 C.3     1  UNL1        0.0294
     20 C         145.0111  140.6351  163.8995 C.3     1  UNL1        0.0666
     21 S         144.3509  140.0460  162.6882 S.3     1  UNL1       -0.0756
     22 C         144.3327  142.4892  160.5249 C.3     1  UNL1        0.1340
     23 N         143.1241  141.8221  161.1117 N.ar    1  UNL1       -0.2884
     24 C         143.1325  140.6991  162.1060 C.ar    1  UNL1        0.1932
     25 N         141.7085  140.3437  162.4160 N.ar    1  UNL1       -0.1221
     26 N         140.8201  141.2472  161.6132 N.ar    1  UNL1       -0.1282
     27 C         141.6949  142.1609  160.8071 C.ar    1  UNL1        0.1683
     28 C         141.2234  143.2262  159.8623 C.ar    1  UNL1        0.0551
     29 C         140.7671  144.5523  160.3945 C.ar    1  UNL1        0.0062
     30 C         140.2956  145.6177  159.4497 C.ar    1  UNL1        0.0208
     31 C         140.2803  145.3569  157.9726 C.ar    1  UNL1        0.0989
     32 N         140.7366  144.0308  157.4403 N.ar    1  UNL1       -0.2422
     33 C         141.2081  142.9654  158.3852 C.ar    1  UNL1        0.1019
@<TRIPOS>BOND
     1    22    23    1
     2    23    24   ar
     3    24    21    1
     4    21    20    1
     5    20    19    1
     6    19    18    1
     7    18     1    1
     8     1     2    1
     9     2     3    1
    10     4     3    1
    11     4     5    1
    12     5     6    1
    13     6     8    1
    14     8     9   ar
    15     9    10   ar
    16    10    11   ar
    17    11    14    1
    18    14    15    1
    19    14    16    1
    20    14    17    1
    21    11    12   ar
    22    12    13   ar
    23     4     7    1
    24    24    25   ar
    25    25    26   ar
    26    26    27   ar
    27    27    28    1
    28    28    29   ar
    29    29    30   ar
    30    30    31   ar
    31    31    32   ar
    32    32    33   ar
    33    27    23   ar
    34    33    28   ar
    35     7     1    1
    36     6     4    1
    37    13     8   ar
@<TRIPOS>MOLECULE
*****
 33 37 0 0 0
SMALL
GASTEIGER

@<TRIPOS>ATOM
      1 N         141.5982  138.2909  161.9348 N.3     1  UNL1       -0.2726
      2 C         142.9195  137.9713  161.3010 C.3     1  UNL1        0.0721
      3 C         144.0029  138.4514  162.2206 C.3     1  UNL1        0.0190
      4 C         143.3511  139.0677  163.4229 C.3     1  UNL1        0.0201
      5 C         144.6265  139.4350  164.1217 C.3     1  UNL1        0.0061
      6 C         143.3051  139.7546  164.7556 C.3     1  UNL1        0.0237
      7 C         141.8649  138.9686  163.2462 C.3     1  UNL1        0.0724
      8 C         142.5157  140.3357  165.8909 C.ar    1  UNL1       -0.0225
      9 C         141.3994  139.5472  166.5092 C.ar    1  UNL1       -0.0043
     10 C         140.6099  140.1283  167.6445 C.ar    1  UNL1        0.0035
     11 C         140.9368  141.4979  168.1616 C.ar    1  UNL1        0.0714
     12 C         142.0530  142.2864  167.5434 C.ar    1  UNL1        0.0035
     13 C         142.8425  141.7053  166.4080 C.ar    1  UNL1       -0.0043
     14 C         140.1473  142.0790  169.2970 C.3     1  UNL1        0.4186
     15 F         139.3578  142.6601  170.4324 F       1  UNL1       -0.1659
     16 F         139.3076  140.8371  169.3487 F       1  UNL1       -0.1659
     17 F         140.9870  143.3208  169.2453 F       1  UNL1       -0.1659
     18 C         140.2472  137.9864  161.3585 C.3     1  UNL1        0.0730
     19 C         139.0448  137.9319  162.2537 C.3     1  UNL1        0.0294
     20 C         137.7540  138.5576  161.8150 C.3     1  UNL1        0.0666
     21 S         137.5849  140.0469  161.8724 S.3     1  UNL1       -0.0756
     22 C         140.1430  141.7664  160.8004 C.3     1  UNL1        0.1340
     23 N         139.6833  141.6648  162.2246 N.ar    1  UNL1       -0.2884
     24 C         138.5075  140.8745  162.7173 C.ar    1  UNL1        0.1932
     25 N         138.4163  141.0569  164.2034 N.ar    1  UNL1       -0.1221
     26 N         139.5357  141.9600  164.6291 N.ar    1  UNL1       -0.1282
     27 C         140.3188  142.3358  163.4062 C.ar    1  UNL1        0.1683
     28 C         141.5255  143.2261  163.3710 C.ar    1  UNL1        0.0551
     29 C         142.8171  142.7168  162.8032 C.ar    1  UNL1        0.0062
     30 C         144.0238  143.6071  162.7680 C.ar    1  UNL1        0.0208
     31 C         143.9388  145.0068  163.3007 C.ar    1  UNL1        0.0989
     32 N         142.6472  145.5161  163.8685 N.ar    1  UNL1       -0.2422
     33 C         141.4406  144.6257  163.9037 C.ar    1  UNL1        0.1019
@<TRIPOS>BOND
     1    22    23    1
     2    23    24   ar
     3    24    21    1
     4    21    20    1
     5    20    19    1
     6    19    18    1
     7    18     1    1
     8     1     2    1
     9     2     3    1
    10     4     3    1
    11     4     5    1
    12     5     6    1
    13     6     8    1
    14     8     9   ar
    15     9    10   ar
    16    10    11   ar
    17    11    14    1
    18    14    15    1
    19    14    16    1
    20    14    17    1
    21    11    12   ar
    22    12    13   ar
    23     4     7    1
    24    24    25   ar
    25    25    26   ar
    26    26    27   ar
    27    27    28    1
    28    28    29   ar
    29    29    30   ar
    30    30    31   ar
    31    31    32   ar
    32    32    33   ar
    33    27    23   ar
    34    33    28   ar
    35     7     1    1
    36     6     4    1
    37    13     8   ar
