@<TRIPOS>MOLECULE
*****
 19 20 0 0 0
SMALL
GASTEIGER

@<TRIPOS>ATOM
      1 C         138.1808  139.7845  162.9176 C.ar    1  UNL1        0.0282
      2 C         138.0040  140.7410  161.7757 C.ar    1  UNL1        0.0010
      3 C         137.8306  142.2064  162.0449 C.ar    1  UNL1        0.0113
      4 C         137.8341  142.7154  163.4558 C.ar    1  UNL1        0.0607
      5 CL        137.6608  144.1808  163.7249 Cl      1  UNL1       -0.0821
      6 C         138.0110  141.7589  164.5977 C.ar    1  UNL1        0.0486
      7 C         138.1843  140.2935  164.3285 C.ar    1  UNL1        0.1434
      8 C         138.3542  138.3190  162.6484 C.3     1  UNL1        0.0987
      9 C         140.8025  137.4634  162.8021 C.3     1  UNL1        0.0861
     10 N         139.4166  137.5445  163.3703 N.3     1  UNL1       -0.2925
     11 H         139.5028  137.9578  164.2988 H       1  UNL1        0.1236
     12 O         138.3612  139.3370  165.4705 O.3     1  UNL1       -0.4537
     13 C         139.4694  139.5464  166.4594 C.ar    1  UNL1        0.1453
     14 C         140.8990  139.4572  166.0139 C.ar    1  UNL1        0.0384
     15 C         142.0071  139.6665  167.0029 C.ar    1  UNL1        0.0145
     16 C         141.6858  139.9651  168.4373 C.ar    1  UNL1        0.0579
     17 CL        142.7940  140.1745  169.4262 Cl      1  UNL1       -0.0822
     18 C         140.2563  140.0543  168.8828 C.ar    1  UNL1        0.0145
     19 C         139.1480  139.8449  167.8938 C.ar    1  UNL1        0.0384
@<TRIPOS>BOND
     1     9    10    1
     2    10     8    1
     3     8     1    1
     4     1     2   ar
     5     2     3   ar
     6     3     4   ar
     7     4     5    1
     8     4     6   ar
     9     6     7   ar
    10     7    12    1
    11    12    13    1
    12    13    14   ar
    13    14    15   ar
    14    15    16   ar
    15    16    17    1
    16    16    18   ar
    17    18    19   ar
    18     7     1   ar
    19    19    13   ar
    20    10    11    1
@<TRIPOS>MOLECULE
*****
 19 20 0 0 0
SMALL
GASTEIGER

@<TRIPOS>ATOM
      1 C         142.4093  144.2862  163.8464 C.ar    1  UNL1        0.0282
      2 C         143.6100  144.2526  162.9479 C.ar    1  UNL1        0.0010
      3 C         144.5933  143.1247  163.0520 C.ar    1  UNL1        0.0113
      4 C         144.3759  142.0303  164.0544 C.ar    1  UNL1        0.0607
      5 CL        145.3593  140.9023  164.1585 Cl      1  UNL1       -0.0821
      6 C         143.1753  142.0638  164.9529 C.ar    1  UNL1        0.0486
      7 C         142.1920  143.1918  164.8488 C.ar    1  UNL1        0.1434
      8 C         141.4260  145.4141  163.7423 C.3     1  UNL1        0.0987
      9 C         139.0434  144.8599  162.8672 C.3     1  UNL1        0.0861
     10 N         139.9703  145.1667  164.0059 N.3     1  UNL1       -0.2925
     11 H         139.9176  144.3771  164.6494 H       1  UNL1        0.1236
     12 O         140.9912  143.2253  165.7473 O.3     1  UNL1       -0.4537
     13 C         140.1849  141.9799  165.9683 C.ar    1  UNL1        0.1453
     14 C         139.2425  141.4981  164.9054 C.ar    1  UNL1        0.0384
     15 C         138.4361  140.2528  165.1264 C.ar    1  UNL1        0.0145
     16 C         138.5722  139.4892  166.4103 C.ar    1  UNL1        0.0579
     17 CL        137.7658  138.2438  166.6313 Cl      1  UNL1       -0.0822
     18 C         139.5146  139.9709  167.4732 C.ar    1  UNL1        0.0145
     19 C         140.3210  141.2163  167.2522 C.ar    1  UNL1        0.0384
@<TRIPOS>BOND
     1     9    10    1
     2    10     8    1
     3     8     1    1
     4     1     2   ar
     5     2     3   ar
     6     3     4   ar
     7     4     5    1
     8     4     6   ar
     9     6     7   ar
    10     7    12    1
    11    12    13    1
    12    13    14   ar
    13    14    15   ar
    14    15    16   ar
    15    16    17    1
    16    16    18   ar
    17    18    19   ar
    18     7     1   ar
    19    19    13   ar
    20    10    11    1
@<TRIPOS>MOLECULE
*****
 19 20 0 0 0
SMALL
GASTEIGER

@<TRIPOS>ATOM
      1 C         142.4328  144.5684  163.7702 C.ar    1  UNL1        0.0282
      2 C         141.2814  145.3104  163.1589 C.ar    1  UNL1        0.0010
      3 C         139.8731  144.9191  163.4960 C.ar    1  UNL1        0.0113
      4 C         139.6162  143.7857  164.4443 C.ar    1  UNL1        0.0607
      5 CL        138.2080  143.3943  164.7814 Cl      1  UNL1       -0.0821
      6 C         140.7676  143.0437  165.0556 C.ar    1  UNL1        0.0486
      7 C         142.1759  143.4350  164.7186 C.ar    1  UNL1        0.1434
      8 C         143.8410  144.9598  163.4332 C.3     1  UNL1        0.0987
      9 C         143.8879  143.1706  161.5499 C.3     1  UNL1        0.0861
     10 N         144.5736  144.2508  162.3329 N.3     1  UNL1       -0.2925
     11 H         144.8597  144.9641  161.6623 H       1  UNL1        0.1236
     12 O         143.3273  142.6930  165.3299 O.3     1  UNL1       -0.4537
     13 C         143.0913  141.7560  166.4772 C.ar    1  UNL1        0.1453
     14 C         143.0876  142.2782  167.8835 C.ar    1  UNL1        0.0384
     15 C         142.8517  141.3412  169.0308 C.ar    1  UNL1        0.0145
     16 C         142.6194  139.8821  168.7720 C.ar    1  UNL1        0.0579
     17 CL        142.3834  138.9452  169.9193 Cl      1  UNL1       -0.0822
     18 C         142.6230  139.3599  167.3659 C.ar    1  UNL1        0.0145
     19 C         142.8590  140.2969  166.2184 C.ar    1  UNL1        0.0384
@<TRIPOS>BOND
     1     9    10    1
     2    10     8    1
     3     8     1    1
     4     1     2   ar
     5     2     3   ar
     6     3     4   ar
     7     4     5    1
     8     4     6   ar
     9     6     7   ar
    10     7    12    1
    11    12    13    1
    12    13    14   ar
    13    14    15   ar
    14    15    16   ar
    15    16    17    1
    16    16    18   ar
    17    18    19   ar
    18     7     1   ar
    19    19    13   ar
    20    10    11    1
@<TRIPOS>MOLECULE
*****
 19 20 0 0 0
SMALL
GASTEIGER

@<TRIPOS>ATOM
      1 C         141.5419  144.1685  163.6779 C.ar    1  UNL1        0.0282
      2 C         142.7928  144.8949  163.2809 C.ar    1  UNL1        0.0010
      3 C         144.1240  144.2126  163.3930 C.ar    1  UNL1        0.0113
      4 C         144.2042  142.8040  163.9022 C.ar    1  UNL1        0.0607
      5 CL        145.5354  142.1217  164.0144 Cl      1  UNL1       -0.0821
      6 C         142.9533  142.0777  164.2993 C.ar    1  UNL1        0.0486
      7 C         141.6222  142.7599  164.1871 C.ar    1  UNL1        0.1434
      8 C         140.2108  144.8508  163.5658 C.3     1  UNL1        0.0987
      9 C         137.9951  144.4833  164.8716 C.3     1  UNL1        0.0861
     10 N         139.3739  145.0684  164.7914 N.3     1  UNL1       -0.2925
     11 H         139.9006  144.6899  165.5786 H       1  UNL1        0.1236
     12 O         140.3713  142.0335  164.5842 O.3     1  UNL1       -0.4537
     13 C         140.1714  141.6076  166.0085 C.ar    1  UNL1        0.1453
     14 C         139.5809  140.2628  166.3133 C.ar    1  UNL1        0.0384
     15 C         139.3810  139.8368  167.7376 C.ar    1  UNL1        0.0145
     16 C         139.7716  140.7556  168.8571 C.ar    1  UNL1        0.0579
     17 CL        139.5717  140.3297  170.2813 Cl      1  UNL1       -0.0822
     18 C         140.3620  142.1004  168.5523 C.ar    1  UNL1        0.0145
     19 C         140.5619  142.5264  167.1280 C.ar    1  UNL1        0.0384
@<TRIPOS>BOND
     1     9    10    1
     2    10     8    1
     3     8     1    1
     4     1     2   ar
     5     2     3   ar
     6     3     4   ar
     7     4     5    1
     8     4     6   ar
     9     6     7   ar
    10     7    12    1
    11    12    13    1
    12    13    14   ar
    13    14    15   ar
    14    15    16   ar
    15    16    17    1
    16    16    18   ar
    17    18    19   ar
    18     7     1   ar
    19    19    13   ar
    20    10    11    1
@<TRIPOS>MOLECULE
*****
 19 20 0 0 0
SMALL
GASTEIGER

@<TRIPOS>ATOM
      1 C         139.5728  140.3353  167.4424 C.ar    1  UNL1        0.0282
      2 C         139.3009  140.3621  168.9173 C.ar    1  UNL1        0.0010
      3 C         139.7229  141.5457  169.7364 C.ar    1  UNL1        0.0113
      4 C         140.4169  142.7025  169.0807 C.ar    1  UNL1        0.0607
      5 CL        140.8389  143.8861  169.8998 Cl      1  UNL1       -0.0821
      6 C         140.6888  142.6758  167.6058 C.ar    1  UNL1        0.0486
      7 C         140.2668  141.4922  166.7867 C.ar    1  UNL1        0.1434
      8 C         139.1508  139.1517  166.6233 C.3     1  UNL1        0.0987
      9 C         138.7150  138.7541  164.0931 C.3     1  UNL1        0.0861
     10 N         138.2973  139.3483  165.4056 N.3     1  UNL1       -0.2925
     11 H         137.3787  138.9626  165.6244 H       1  UNL1        0.1236
     12 O         140.5387  141.4655  165.3117 O.3     1  UNL1       -0.4537
     13 C         140.3100  142.6957  164.4845 C.ar    1  UNL1        0.1453
     14 C         141.4694  143.5649  164.0968 C.ar    1  UNL1        0.0384
     15 C         141.2408  144.7951  163.2696 C.ar    1  UNL1        0.0145
     16 C         139.8528  145.1562  162.8301 C.ar    1  UNL1        0.0579
     17 CL        139.6241  146.3864  162.0030 Cl      1  UNL1       -0.0822
     18 C         138.6934  144.2870  163.2179 C.ar    1  UNL1        0.0145
     19 C         138.9220  143.0567  164.0451 C.ar    1  UNL1        0.0384
@<TRIPOS>BOND
     1     9    10    1
     2    10     8    1
     3     8     1    1
     4     1     2   ar
     5     2     3   ar
     6     3     4   ar
     7     4     5    1
     8     4     6   ar
     9     6     7   ar
    10     7    12    1
    11    12    13    1
    12    13    14   ar
    13    14    15   ar
    14    15    16   ar
    15    16    17    1
    16    16    18   ar
    17    18    19   ar
    18     7     1   ar
    19    19    13   ar
    20    10    11    1
@<TRIPOS>MOLECULE
*****
 19 20 0 0 0
SMALL
GASTEIGER

@<TRIPOS>ATOM
      1 C         140.5128  140.4785  167.1907 C.ar    1  UNL1        0.0282
      2 C         139.6480  139.9651  168.3036 C.ar    1  UNL1        0.0010
      3 C         139.3825  140.8240  169.5044 C.ar    1  UNL1        0.0113
      4 C         139.9820  142.1961  169.5924 C.ar    1  UNL1        0.0607
      5 CL        139.7166  143.0550  170.7932 Cl      1  UNL1       -0.0821
      6 C         140.8468  142.7095  168.4795 C.ar    1  UNL1        0.0486
      7 C         141.1122  141.8507  167.2787 C.ar    1  UNL1        0.1434
      8 C         140.7782  139.6197  165.9899 C.3     1  UNL1        0.0987
      9 C         143.0616  138.4009  165.7652 C.3     1  UNL1        0.0861
     10 N         142.1600  139.5462  165.4110 N.3     1  UNL1       -0.2925
     11 H         142.0540  139.5347  164.3966 H       1  UNL1        0.1236
     12 O         141.9771  142.3641  166.1658 O.3     1  UNL1       -0.4537
     13 C         141.4064  143.3028  165.1444 C.ar    1  UNL1        0.1453
     14 C         139.9233  143.5128  165.0647 C.ar    1  UNL1        0.0384
     15 C         139.3526  144.4515  164.0433 C.ar    1  UNL1        0.0145
     16 C         140.2650  145.1802  163.1017 C.ar    1  UNL1        0.0579
     17 CL        139.6943  146.1188  162.0804 Cl      1  UNL1       -0.0822
     18 C         141.7480  144.9702  163.1815 C.ar    1  UNL1        0.0145
     19 C         142.3188  144.0315  164.2029 C.ar    1  UNL1        0.0384
@<TRIPOS>BOND
     1     9    10    1
     2    10     8    1
     3     8     1    1
     4     1     2   ar
     5     2     3   ar
     6     3     4   ar
     7     4     5    1
     8     4     6   ar
     9     6     7   ar
    10     7    12    1
    11    12    13    1
    12    13    14   ar
    13    14    15   ar
    14    15    16   ar
    15    16    17    1
    16    16    18   ar
    17    18    19   ar
    18     7     1   ar
    19    19    13   ar
    20    10    11    1
@<TRIPOS>MOLECULE
*****
 19 20 0 0 0
SMALL
GASTEIGER

@<TRIPOS>ATOM
      1 C         143.2566  143.5004  164.4556 C.ar    1  UNL1        0.0282
      2 C         143.1269  144.9144  163.9720 C.ar    1  UNL1        0.0010
      3 C         141.7837  145.4512  163.5752 C.ar    1  UNL1        0.0113
      4 C         140.5700  144.5740  163.6620 C.ar    1  UNL1        0.0607
      5 CL        139.2267  145.1108  163.2651 Cl      1  UNL1       -0.0821
      6 C         140.6996  143.1601  164.1456 C.ar    1  UNL1        0.0486
      7 C         142.0429  142.6233  164.5424 C.ar    1  UNL1        0.1434
      8 C         144.5998  142.9636  164.8524 C.3     1  UNL1        0.0987
      9 C         145.3518  141.5791  162.7866 C.3     1  UNL1        0.0861
     10 N         145.0981  141.6781  164.2616 N.3     1  UNL1       -0.2925
     11 H         145.9797  141.4623  164.7272 H       1  UNL1        0.1236
     12 O         142.1725  141.2092  165.0260 O.3     1  UNL1       -0.4537
     13 C         140.9771  140.4946  165.5830 C.ar    1  UNL1        0.1453
     14 C         140.1760  139.5775  164.7069 C.ar    1  UNL1        0.0384
     15 C         138.9806  138.8629  165.2639 C.ar    1  UNL1        0.0145
     16 C         138.5863  139.0652  166.6969 C.ar    1  UNL1        0.0579
     17 CL        137.3909  138.3505  167.2539 Cl      1  UNL1       -0.0822
     18 C         139.3873  139.9821  167.5729 C.ar    1  UNL1        0.0145
     19 C         140.5827  140.6969  167.0160 C.ar    1  UNL1        0.0384
@<TRIPOS>BOND
     1     9    10    1
     2    10     8    1
     3     8     1    1
     4     1     2   ar
     5     2     3   ar
     6     3     4   ar
     7     4     5    1
     8     4     6   ar
     9     6     7   ar
    10     7    12    1
    11    12    13    1
    12    13    14   ar
    13    14    15   ar
    14    15    16   ar
    15    16    17    1
    16    16    18   ar
    17    18    19   ar
    18     7     1   ar
    19    19    13   ar
    20    10    11    1
@<TRIPOS>MOLECULE
*****
 19 20 0 0 0
SMALL
GASTEIGER

@<TRIPOS>ATOM
      1 C         138.7878  139.0833  165.9745 C.ar    1  UNL1        0.0282
      2 C         138.7855  137.6890  165.4216 C.ar    1  UNL1        0.0010
      3 C         139.0009  137.4636  163.9543 C.ar    1  UNL1        0.0113
      4 C         139.2186  138.6326  163.0400 C.ar    1  UNL1        0.0607
      5 CL        139.4339  138.4072  161.5727 Cl      1  UNL1       -0.0821
      6 C         139.2209  140.0269  163.5929 C.ar    1  UNL1        0.0486
      7 C         139.0055  140.2523  165.0601 C.ar    1  UNL1        0.1434
      8 C         138.5725  139.3087  167.4417 C.3     1  UNL1        0.0987
      9 C         139.2678  140.4769  169.6557 C.3     1  UNL1        0.0861
     10 N         139.5609  140.1165  168.2295 N.3     1  UNL1       -0.2925
     11 H         140.4350  139.5909  168.2323 H       1  UNL1        0.1236
     12 O         139.0079  141.6467  165.6130 O.3     1  UNL1       -0.4537
     13 C         139.1368  142.8202  164.6877 C.ar    1  UNL1        0.1453
     14 C         140.4596  143.5099  164.5307 C.ar    1  UNL1        0.0384
     15 C         140.5885  144.6833  163.6054 C.ar    1  UNL1        0.0145
     16 C         139.3946  145.1672  162.8370 C.ar    1  UNL1        0.0579
     17 CL        139.5235  146.3407  161.9116 Cl      1  UNL1       -0.0822
     18 C         138.0718  144.4777  162.9939 C.ar    1  UNL1        0.0145
     19 C         137.9429  143.3041  163.9193 C.ar    1  UNL1        0.0384
@<TRIPOS>BOND
     1     9    10    1
     2    10     8    1
     3     8     1    1
     4     1     2   ar
     5     2     3   ar
     6     3     4   ar
     7     4     5    1
     8     4     6   ar
     9     6     7   ar
    10     7    12    1
    11    12    13    1
    12    13    14   ar
    13    14    15   ar
    14    15    16   ar
    15    16    17    1
    16    16    18   ar
    17    18    19   ar
    18     7     1   ar
    19    19    13   ar
    20    10    11    1
@<TRIPOS>MOLECULE
*****
 19 20 0 0 0
SMALL
GASTEIGER

@<TRIPOS>ATOM
      1 C         140.5791  139.4019  164.3267 C.ar    1  UNL1        0.0282
      2 C         139.9897  138.0329  164.1587 C.ar    1  UNL1        0.0010
      3 C         138.9007  137.5670  165.0790 C.ar    1  UNL1        0.0113
      4 C         138.4010  138.4702  166.1673 C.ar    1  UNL1        0.0607
      5 CL        137.3119  138.0043  167.0875 Cl      1  UNL1       -0.0821
      6 C         138.9903  139.8393  166.3353 C.ar    1  UNL1        0.0486
      7 C         140.0794  140.3051  165.4150 C.ar    1  UNL1        0.1434
      8 C         141.6681  139.8678  163.4064 C.3     1  UNL1        0.0987
      9 C         144.2066  140.3259  163.0964 C.3     1  UNL1        0.0861
     10 N         142.9862  140.3115  163.9684 N.3     1  UNL1       -0.2925
     11 H         142.8557  141.2644  164.3080 H       1  UNL1        0.1236
     12 O         140.6687  141.6743  165.5831 O.3     1  UNL1       -0.4537
     13 C         141.2566  142.0811  166.9017 C.ar    1  UNL1        0.1453
     14 C         140.3959  142.7496  167.9324 C.ar    1  UNL1        0.0384
     15 C         140.9838  143.1564  169.2511 C.ar    1  UNL1        0.0145
     16 C         142.4324  142.8946  169.5391 C.ar    1  UNL1        0.0579
     17 CL        143.0203  143.3014  170.8577 Cl      1  UNL1       -0.0822
     18 C         143.2931  142.2261  168.5085 C.ar    1  UNL1        0.0145
     19 C         142.7052  141.8193  167.1898 C.ar    1  UNL1        0.0384
@<TRIPOS>BOND
     1     9    10    1
     2    10     8    1
     3     8     1    1
     4     1     2   ar
     5     2     3   ar
     6     3     4   ar
     7     4     5    1
     8     4     6   ar
     9     6     7   ar
    10     7    12    1
    11    12    13    1
    12    13    14   ar
    13    14    15   ar
    14    15    16   ar
    15    16    17    1
    16    16    18   ar
    17    18    19   ar
    18     7     1   ar
    19    19    13   ar
    20    10    11    1
