@<TRIPOS>MOLECULE
*****
 36 40 0 0 0
SMALL
GASTEIGER

@<TRIPOS>ATOM
      1 N         137.8634  142.9500  162.8911 N.3     1  UNL1       -0.2711
      2 C         138.0900  142.6456  161.4399 C.3     1  UNL1        0.0735
      3 C         138.1078  141.2226  160.9659 C.3     1  UNL1        0.0331
      4 C         137.8989  140.1040  161.9431 C.3     1  UNL1        0.0570
      5 C         137.6724  140.4083  163.3943 C.3     1  UNL1        0.0331
      6 C         137.6546  141.8313  163.8683 C.3     1  UNL1        0.0735
      7 N         137.9167  138.6809  161.4690 N.3     1  UNL1       -0.2934
      8 H         137.3431  138.6440  160.6264 H       1  UNL1        0.1236
      9 C         139.2201  138.0179  161.1350 C.3     1  UNL1        0.1152
     10 C         140.4135  138.2209  162.0207 C.ar    1  UNL1        0.0765
     11 C         140.5658  137.4077  163.2718 C.ar    1  UNL1        0.0193
     12 C         141.7593  137.6106  164.1576 C.ar    1  UNL1        0.0411
     13 C         142.8004  138.6268  163.7922 C.ar    1  UNL1        0.1708
     14 C         142.6479  139.4401  162.5409 C.ar    1  UNL1        0.1682
     15 N         141.4545  139.2371  161.6552 N.ar    1  UNL1       -0.2304
     16 N         143.6890  140.4563  162.1755 N.am    1  UNL1       -0.2639
     17 C         144.8825  140.6592  163.0613 C.2     1  UNL1        0.2718
     18 O         145.9235  141.6754  162.6959 O.2     1  UNL1       -0.2707
     19 C         145.0348  139.8460  164.3124 C.3     1  UNL1        0.2898
     20 O         143.9938  138.8298  164.6779 O.3     1  UNL1       -0.4628
     21 H         143.5890  140.9900  161.3543 H       1  UNL1        0.1565
     22 C         137.8457  144.3730  163.3651 C.3     1  UNL1        0.0942
     23 C         138.8845  144.8536  164.3346 C.3     1  UNL1        0.1157
     24 C         140.8663  142.0621  167.2552 C.ar    1  UNL1        0.1402
     25 C         142.3036  141.6764  167.0667 C.ar    1  UNL1        0.0401
     26 C         143.0802  142.2212  165.9048 C.ar    1  UNL1        0.0413
     27 C         142.4196  143.1516  164.9313 C.ar    1  UNL1        0.1530
     28 C         140.9824  143.5374  165.1197 C.ar    1  UNL1        0.0912
     29 C         140.2058  142.9926  166.2816 C.ar    1  UNL1        0.0549
     30 N         140.3217  144.4679  164.1462 N.am    1  UNL1       -0.2515
     31 C         141.0984  145.0126  162.9842 C.2     1  UNL1        0.2740
     32 O         140.4378  145.9431  162.0107 O.2     1  UNL1       -0.2705
     33 C         142.5357  144.6269  162.7959 C.3     1  UNL1        0.2900
     34 O         143.1963  143.6964  163.7694 O.3     1  UNL1       -0.4643
     35 C         139.5792  140.1074  168.3830 C.3     1  UNL1        0.2525
     36 O         140.0897  141.5174  168.4171 O.3     1  UNL1       -0.4714
@<TRIPOS>BOND
     1    35    36    1
     2    36    24    1
     3    24    25   ar
     4    25    26   ar
     5    26    27   ar
     6    27    28   ar
     7    28    29   ar
     8    28    30    1
     9    30    23    1
    10    23    22    1
    11    22     1    1
    12     1     2    1
    13     2     3    1
    14     3     4    1
    15     4     7    1
    16     7     9    1
    17     9    10    1
    18    10    11   ar
    19    11    12   ar
    20    12    13   ar
    21    13    14   ar
    22    14    15   ar
    23    14    16    1
    24    16    17   am
    25    17    18    2
    26    17    19    1
    27    19    20    1
    28     4     5    1
    29     5     6    1
    30    30    31   am
    31    31    32    2
    32    31    33    1
    33    33    34    1
    34    29    24   ar
    35     6     1    1
    36    34    27    1
    37    15    10   ar
    38    20    13    1
    39     7     8    1
    40    16    21    1
@<TRIPOS>MOLECULE
*****
 36 40 0 0 0
SMALL
GASTEIGER

@<TRIPOS>ATOM
      1 N         141.8258  138.2092  163.9001 N.3     1  UNL1       -0.2711
      2 C         142.8307  138.5392  164.9637 C.3     1  UNL1        0.0735
      3 C         144.0541  139.3355  164.6185 C.3     1  UNL1        0.0331
      4 C         144.2726  139.8017  163.2096 C.3     1  UNL1        0.0570
      5 C         143.2676  139.4717  162.1460 C.3     1  UNL1        0.0331
      6 C         142.0443  138.6754  162.4913 C.3     1  UNL1        0.0735
      7 N         145.4960  140.5980  162.8644 N.3     1  UNL1       -0.2934
      8 H         145.5955  140.5599  161.8499 H       1  UNL1        0.1236
      9 C         145.5845  142.0438  163.2541 C.3     1  UNL1        0.1152
     10 C         144.3783  142.9276  163.1362 C.ar    1  UNL1        0.0765
     11 C         143.7493  143.5064  164.3688 C.ar    1  UNL1        0.0193
     12 C         142.5430  144.3902  164.2509 C.ar    1  UNL1        0.0411
     13 C         141.9658  144.6952  162.9005 C.ar    1  UNL1        0.1708
     14 C         142.5948  144.1163  161.6678 C.ar    1  UNL1        0.1682
     15 N         143.8011  143.2325  161.7857 N.ar    1  UNL1       -0.2304
     16 N         142.0176  144.4212  160.3173 N.am    1  UNL1       -0.2639
     17 C         140.8113  145.3051  160.1995 C.2     1  UNL1        0.2718
     18 O         140.2341  145.6100  158.8490 O.2     1  UNL1       -0.2707
     19 C         140.1823  145.8839  161.4321 C.3     1  UNL1        0.2898
     20 O         140.7596  145.5789  162.7825 O.3     1  UNL1       -0.4628
     21 H         142.4304  144.0413  159.5083 H       1  UNL1        0.1565
     22 C         140.6023  137.4128  164.2454 C.3     1  UNL1        0.0942
     23 C         139.3700  138.1089  164.7422 C.3     1  UNL1        0.1157
     24 C         140.1765  142.0426  166.7732 C.ar    1  UNL1        0.1402
     25 C         139.7286  143.3230  166.1329 C.ar    1  UNL1        0.0401
     26 C         139.0119  143.2921  164.8156 C.ar    1  UNL1        0.0413
     27 C         138.7430  141.9809  164.1386 C.ar    1  UNL1        0.1530
     28 C         139.1909  140.7005  164.7789 C.ar    1  UNL1        0.0912
     29 C         139.9076  140.7314  166.0962 C.ar    1  UNL1        0.0549
     30 N         138.9221  139.3892  164.1019 N.am    1  UNL1       -0.2515
     31 C         138.2054  139.3584  162.7845 C.2     1  UNL1        0.2740
     32 O         137.9366  138.0472  162.1075 O.2     1  UNL1       -0.2705
     33 C         137.7575  140.6388  162.1442 C.3     1  UNL1        0.2900
     34 O         138.0263  141.9500  162.8212 O.3     1  UNL1       -0.4643
     35 C         140.5867  143.1528  169.0860 C.3     1  UNL1        0.2525
     36 O         140.8932  142.0735  168.0906 O.3     1  UNL1       -0.4714
@<TRIPOS>BOND
     1    35    36    1
     2    36    24    1
     3    24    25   ar
     4    25    26   ar
     5    26    27   ar
     6    27    28   ar
     7    28    29   ar
     8    28    30    1
     9    30    23    1
    10    23    22    1
    11    22     1    1
    12     1     2    1
    13     2     3    1
    14     3     4    1
    15     4     7    1
    16     7     9    1
    17     9    10    1
    18    10    11   ar
    19    11    12   ar
    20    12    13   ar
    21    13    14   ar
    22    14    15   ar
    23    14    16    1
    24    16    17   am
    25    17    18    2
    26    17    19    1
    27    19    20    1
    28     4     5    1
    29     5     6    1
    30    30    31   am
    31    31    32    2
    32    31    33    1
    33    33    34    1
    34    29    24   ar
    35     6     1    1
    36    34    27    1
    37    15    10   ar
    38    20    13    1
    39     7     8    1
    40    16    21    1
@<TRIPOS>MOLECULE
*****
 36 40 0 0 0
SMALL
GASTEIGER

@<TRIPOS>ATOM
      1 N         142.6832  144.2653  163.3055 N.3     1  UNL1       -0.2711
      2 C         142.5098  143.7442  161.9097 C.3     1  UNL1        0.0735
      3 C         141.1344  143.5954  161.3301 C.3     1  UNL1        0.0331
      4 C         139.9323  143.9677  162.1464 C.3     1  UNL1        0.0570
      5 C         140.1057  144.4888  163.5422 C.3     1  UNL1        0.0331
      6 C         141.4811  144.6376  164.1218 C.3     1  UNL1        0.0735
      7 N         138.5568  143.8189  161.5668 N.3     1  UNL1       -0.2934
      8 H         138.4777  144.5051  160.8162 H       1  UNL1        0.1236
      9 C         138.1216  142.5015  160.9967 C.3     1  UNL1        0.1152
     10 C         138.3190  141.2410  161.7855 C.ar    1  UNL1        0.0765
     11 C         138.8374  140.0066  161.1093 C.ar    1  UNL1        0.0193
     12 C         139.0348  138.7460  161.8981 C.ar    1  UNL1        0.0411
     13 C         138.7139  138.7200  163.3631 C.ar    1  UNL1        0.1708
     14 C         138.1955  139.9546  164.0394 C.ar    1  UNL1        0.1682
     15 N         137.9981  141.2151  163.2506 N.ar    1  UNL1       -0.2304
     16 N         137.8746  139.9286  165.5044 N.am    1  UNL1       -0.2639
     17 C         138.0720  138.6681  166.2932 C.2     1  UNL1        0.2718
     18 O         137.7511  138.6421  167.7582 O.2     1  UNL1       -0.2707
     19 C         138.5904  137.4336  165.6170 C.3     1  UNL1        0.2898
     20 O         138.9113  137.4596  164.1519 O.3     1  UNL1       -0.4628
     21 H         137.5343  140.7389  165.9482 H       1  UNL1        0.1565
     22 C         144.0587  144.4141  163.8851 C.3     1  UNL1        0.0942
     23 C         144.5033  143.5164  165.0016 C.3     1  UNL1        0.1157
     24 C         141.3263  141.7182  167.6328 C.ar    1  UNL1        0.1402
     25 C         141.0445  140.2464  167.5692 C.ar    1  UNL1        0.0401
     26 C         141.8216  139.3738  166.6286 C.ar    1  UNL1        0.0413
     27 C         142.8806  139.9732  165.7515 C.ar    1  UNL1        0.1530
     28 C         143.1624  141.4451  165.8151 C.ar    1  UNL1        0.0912
     29 C         142.3853  142.3176  166.7557 C.ar    1  UNL1        0.0549
     30 N         144.2214  142.0446  164.9380 N.am    1  UNL1       -0.2515
     31 C         144.9985  141.1721  163.9973 C.2     1  UNL1        0.2740
     32 O         146.0575  141.7714  163.1203 O.2     1  UNL1       -0.2705
     33 C         144.7166  139.7001  163.9338 C.3     1  UNL1        0.2900
     34 O         143.6577  139.1007  164.8109 O.3     1  UNL1       -0.4643
     35 C         141.2165  143.1654  169.7877 C.3     1  UNL1        0.2525
     36 O         140.5492  142.5907  168.5735 O.3     1  UNL1       -0.4714
@<TRIPOS>BOND
     1    35    36    1
     2    36    24    1
     3    24    25   ar
     4    25    26   ar
     5    26    27   ar
     6    27    28   ar
     7    28    29   ar
     8    28    30    1
     9    30    23    1
    10    23    22    1
    11    22     1    1
    12     1     2    1
    13     2     3    1
    14     3     4    1
    15     4     7    1
    16     7     9    1
    17     9    10    1
    18    10    11   ar
    19    11    12   ar
    20    12    13   ar
    21    13    14   ar
    22    14    15   ar
    23    14    16    1
    24    16    17   am
    25    17    18    2
    26    17    19    1
    27    19    20    1
    28     4     5    1
    29     5     6    1
    30    30    31   am
    31    31    32    2
    32    31    33    1
    33    33    34    1
    34    29    24   ar
    35     6     1    1
    36    34    27    1
    37    15    10   ar
    38    20    13    1
    39     7     8    1
    40    16    21    1
@<TRIPOS>MOLECULE
*****
 36 40 0 0 0
SMALL
GASTEIGER

@<TRIPOS>ATOM
      1 N         141.1752  144.7758  162.8302 N.3     1  UNL1       -0.2711
      2 C         141.4831  144.1593  161.4979 C.3     1  UNL1        0.0735
      3 C         142.8395  143.5741  161.2378 C.3     1  UNL1        0.0331
      4 C         143.8880  143.6054  162.3100 C.3     1  UNL1        0.0570
      5 C         143.5800  144.2219  163.6423 C.3     1  UNL1        0.0331
      6 C         142.2237  144.8071  163.9024 C.3     1  UNL1        0.0735
      7 N         145.2444  143.0201  162.0499 N.3     1  UNL1       -0.2934
      8 H         145.9255  143.7478  162.2666 H       1  UNL1        0.1236
      9 C         145.6816  141.7859  162.7818 C.3     1  UNL1        0.1152
     10 C         144.6726  140.7446  163.1657 C.ar    1  UNL1        0.0765
     11 C         144.7871  140.0398  164.4848 C.ar    1  UNL1        0.0193
     12 C         143.7780  138.9984  164.8688 C.ar    1  UNL1        0.0411
     13 C         142.6544  138.6620  163.9337 C.ar    1  UNL1        0.1708
     14 C         142.5400  139.3669  162.6145 C.ar    1  UNL1        0.1682
     15 N         143.5490  140.4082  162.2306 N.ar    1  UNL1       -0.2304
     16 N         141.4165  139.0304  161.6794 N.am    1  UNL1       -0.2639
     17 C         140.4074  137.9891  162.0634 C.2     1  UNL1        0.2718
     18 O         139.2838  137.6526  161.1283 O.2     1  UNL1       -0.2707
     19 C         140.5219  137.2842  163.3825 C.3     1  UNL1        0.2898
     20 O         141.6454  137.6207  164.3176 O.3     1  UNL1       -0.4628
     21 H         141.3413  139.4931  160.8136 H       1  UNL1        0.1565
     22 C         139.8187  145.3611  163.0903 C.3     1  UNL1        0.0942
     23 C         138.8649  144.6624  164.0133 C.3     1  UNL1        0.1157
     24 C         140.5679  142.2443  167.4049 C.ar    1  UNL1        0.1402
     25 C         140.4651  140.7480  167.3848 C.ar    1  UNL1        0.0401
     26 C         139.7946  140.0577  166.2342 C.ar    1  UNL1        0.0413
     27 C         139.2269  140.8637  165.1037 C.ar    1  UNL1        0.1530
     28 C         139.3298  142.3600  165.1238 C.ar    1  UNL1        0.0912
     29 C         140.0002  143.0503  166.2744 C.ar    1  UNL1        0.0549
     30 N         138.7621  143.1661  163.9932 N.am    1  UNL1       -0.2515
     31 C         138.0916  142.4757  162.8426 C.2     1  UNL1        0.2740
     32 O         137.5239  143.2817  161.7121 O.2     1  UNL1       -0.2705
     33 C         137.9888  140.9793  162.8226 C.3     1  UNL1        0.2900
     34 O         138.5565  140.1734  163.9531 O.3     1  UNL1       -0.4643
     35 C         140.4116  143.5833  169.6259 C.3     1  UNL1        0.2525
     36 O         141.2384  142.9347  168.5555 O.3     1  UNL1       -0.4714
@<TRIPOS>BOND
     1    35    36    1
     2    36    24    1
     3    24    25   ar
     4    25    26   ar
     5    26    27   ar
     6    27    28   ar
     7    28    29   ar
     8    28    30    1
     9    30    23    1
    10    23    22    1
    11    22     1    1
    12     1     2    1
    13     2     3    1
    14     3     4    1
    15     4     7    1
    16     7     9    1
    17     9    10    1
    18    10    11   ar
    19    11    12   ar
    20    12    13   ar
    21    13    14   ar
    22    14    15   ar
    23    14    16    1
    24    16    17   am
    25    17    18    2
    26    17    19    1
    27    19    20    1
    28     4     5    1
    29     5     6    1
    30    30    31   am
    31    31    32    2
    32    31    33    1
    33    33    34    1
    34    29    24   ar
    35     6     1    1
    36    34    27    1
    37    15    10   ar
    38    20    13    1
    39     7     8    1
    40    16    21    1
@<TRIPOS>MOLECULE
*****
 36 40 0 0 0
SMALL
GASTEIGER

@<TRIPOS>ATOM
      1 N         143.2816  140.4447  160.6543 N.3     1  UNL1       -0.2711
      2 C         144.0953  139.3486  161.2758 C.3     1  UNL1        0.0735
      3 C         143.4115  138.2078  161.9692 C.3     1  UNL1        0.0331
      4 C         141.9139  138.1630  162.0410 C.3     1  UNL1        0.0570
      5 C         141.1002  139.2591  161.4195 C.3     1  UNL1        0.0331
      6 C         141.7840  140.4000  160.7261 C.3     1  UNL1        0.0735
      7 N         141.2301  137.0221  162.7344 N.3     1  UNL1       -0.2934
      8 H         141.6585  136.1653  162.3842 H       1  UNL1        0.1236
      9 C         141.2487  136.9349  164.2318 C.3     1  UNL1        0.1152
     10 C         140.9528  138.1515  165.0577 C.ar    1  UNL1        0.0765
     11 C         139.5479  138.6678  165.1556 C.ar    1  UNL1        0.0193
     12 C         139.2519  139.8845  165.9816 C.ar    1  UNL1        0.0411
     13 C         140.3608  140.5848  166.7095 C.ar    1  UNL1        0.1708
     14 C         141.7657  140.0684  166.6115 C.ar    1  UNL1        0.1682
     15 N         142.0617  138.8518  165.7856 N.ar    1  UNL1       -0.2304
     16 N         142.8747  140.7687  167.3394 N.am    1  UNL1       -0.2639
     17 C         142.5786  141.9854  168.1654 C.2     1  UNL1        0.2718
     18 O         143.6876  142.6857  168.8933 O.2     1  UNL1       -0.2707
     19 C         141.1738  142.5018  168.2633 C.3     1  UNL1        0.2898
     20 O         140.0648  141.8015  167.5354 O.3     1  UNL1       -0.4628
     21 H         143.7968  140.4298  167.2751 H       1  UNL1        0.1565
     22 C         143.9655  141.5856  159.9609 C.3     1  UNL1        0.0942
     23 C         144.5308  142.7202  160.7628 C.3     1  UNL1        0.1157
     24 C         140.7393  145.0457  161.4458 C.ar    1  UNL1        0.1402
     25 C         140.2522  145.2925  162.8429 C.ar    1  UNL1        0.0401
     26 C         141.0289  144.7641  164.0123 C.ar    1  UNL1        0.0413
     27 C         142.2927  143.9890  163.7847 C.ar    1  UNL1        0.1530
     28 C         142.7798  143.7422  162.3876 C.ar    1  UNL1        0.0912
     29 C         142.0031  144.2705  161.2182 C.ar    1  UNL1        0.0549
     30 N         144.0437  142.9670  162.1599 N.am    1  UNL1       -0.2515
     31 C         144.8204  142.4386  163.3293 C.2     1  UNL1        0.2740
     32 O         146.0842  141.6635  163.1017 O.2     1  UNL1       -0.2705
     33 C         144.3333  142.6854  164.7264 C.3     1  UNL1        0.2900
     34 O         143.0695  143.4606  164.9541 O.3     1  UNL1       -0.4643
     35 C         140.1898  145.0061  158.9069 C.3     1  UNL1        0.2525
     36 O         139.9626  145.5741  160.2764 O.3     1  UNL1       -0.4714
@<TRIPOS>BOND
     1    35    36    1
     2    36    24    1
     3    24    25   ar
     4    25    26   ar
     5    26    27   ar
     6    27    28   ar
     7    28    29   ar
     8    28    30    1
     9    30    23    1
    10    23    22    1
    11    22     1    1
    12     1     2    1
    13     2     3    1
    14     3     4    1
    15     4     7    1
    16     7     9    1
    17     9    10    1
    18    10    11   ar
    19    11    12   ar
    20    12    13   ar
    21    13    14   ar
    22    14    15   ar
    23    14    16    1
    24    16    17   am
    25    17    18    2
    26    17    19    1
    27    19    20    1
    28     4     5    1
    29     5     6    1
    30    30    31   am
    31    31    32    2
    32    31    33    1
    33    33    34    1
    34    29    24   ar
    35     6     1    1
    36    34    27    1
    37    15    10   ar
    38    20    13    1
    39     7     8    1
    40    16    21    1
@<TRIPOS>MOLECULE
*****
 36 40 0 0 0
SMALL
GASTEIGER

@<TRIPOS>ATOM
      1 N         141.6647  138.5220  164.4758 N.3     1  UNL1       -0.2711
      2 C         141.6770  138.9666  163.0432 C.3     1  UNL1        0.0735
      3 C         142.8899  139.6451  162.4789 C.3     1  UNL1        0.0331
      4 C         144.0905  139.8789  163.3472 C.3     1  UNL1        0.0570
      5 C         144.0781  139.4343  164.7797 C.3     1  UNL1        0.0331
      6 C         142.8652  138.7558  165.3440 C.3     1  UNL1        0.0735
      7 N         145.3035  140.5574  162.7829 N.3     1  UNL1       -0.2934
      8 H         145.2792  140.4124  161.7736 H       1  UNL1        0.1236
      9 C         145.5125  142.0261  163.0045 C.3     1  UNL1        0.1152
     10 C         144.3418  142.9633  162.9736 C.ar    1  UNL1        0.0765
     11 C         143.8714  143.6178  164.2386 C.ar    1  UNL1        0.0193
     12 C         142.7006  144.5550  164.2078 C.ar    1  UNL1        0.0411
     13 C         142.0002  144.8378  162.9118 C.ar    1  UNL1        0.1708
     14 C         142.4706  144.1833  161.6467 C.ar    1  UNL1        0.1682
     15 N         143.6414  143.2461  161.6776 N.ar    1  UNL1       -0.2304
     16 N         141.7702  144.4660  160.3508 N.am    1  UNL1       -0.2639
     17 C         140.5994  145.4032  160.3199 C.2     1  UNL1        0.2718
     18 O         139.8990  145.6860  159.0240 O.2     1  UNL1       -0.2707
     19 C         140.1291  146.0577  161.5850 C.3     1  UNL1        0.2898
     20 O         140.8295  145.7750  162.8809 O.3     1  UNL1       -0.4628
     21 H         142.0789  144.0364  159.5205 H       1  UNL1        0.1565
     22 C         140.4516  137.8435  165.0401 C.3     1  UNL1        0.0942
     23 C         139.3342  138.6620  165.6158 C.3     1  UNL1        0.1157
     24 C         137.7516  141.4219  162.4333 C.ar    1  UNL1        0.1402
     25 C         137.9087  142.9061  162.5820 C.ar    1  UNL1        0.0401
     26 C         138.5932  143.4705  163.7915 C.ar    1  UNL1        0.0413
     27 C         139.1207  142.5506  164.8523 C.ar    1  UNL1        0.1530
     28 C         138.9637  141.0663  164.7036 C.ar    1  UNL1        0.0912
     29 C         138.2792  140.5019  163.4941 C.ar    1  UNL1        0.0549
     30 N         139.4913  140.1463  165.7645 N.am    1  UNL1       -0.2515
     31 C         140.1758  140.7107  166.9740 C.2     1  UNL1        0.2740
     32 O         140.7033  139.7907  168.0348 O.2     1  UNL1       -0.2705
     33 C         140.3328  142.1951  167.1226 C.3     1  UNL1        0.2900
     34 O         139.8053  143.1150  166.0618 O.3     1  UNL1       -0.4643
     35 C         137.7334  139.7815  160.4186 C.3     1  UNL1        0.2525
     36 O         137.0671  140.8575  161.2238 O.3     1  UNL1       -0.4714
@<TRIPOS>BOND
     1    35    36    1
     2    36    24    1
     3    24    25   ar
     4    25    26   ar
     5    26    27   ar
     6    27    28   ar
     7    28    29   ar
     8    28    30    1
     9    30    23    1
    10    23    22    1
    11    22     1    1
    12     1     2    1
    13     2     3    1
    14     3     4    1
    15     4     7    1
    16     7     9    1
    17     9    10    1
    18    10    11   ar
    19    11    12   ar
    20    12    13   ar
    21    13    14   ar
    22    14    15   ar
    23    14    16    1
    24    16    17   am
    25    17    18    2
    26    17    19    1
    27    19    20    1
    28     4     5    1
    29     5     6    1
    30    30    31   am
    31    31    32    2
    32    31    33    1
    33    33    34    1
    34    29    24   ar
    35     6     1    1
    36    34    27    1
    37    15    10   ar
    38    20    13    1
    39     7     8    1
    40    16    21    1
@<TRIPOS>MOLECULE
*****
 36 40 0 0 0
SMALL
GASTEIGER

@<TRIPOS>ATOM
      1 N         143.7471  142.0381  163.6851 N.3     1  UNL1       -0.2711
      2 C         142.8357  142.5364  164.7673 C.3     1  UNL1        0.0735
      3 C         142.0609  143.8055  164.5700 C.3     1  UNL1        0.0331
      4 C         142.1974  144.5762  163.2904 C.3     1  UNL1        0.0570
      5 C         143.1087  144.0779  162.2082 C.3     1  UNL1        0.0331
      6 C         143.8835  142.8088  162.4056 C.3     1  UNL1        0.0735
      7 N         141.4225  145.8454  163.0930 N.3     1  UNL1       -0.2934
      8 H         142.0266  146.4813  162.5724 H       1  UNL1        0.1236
      9 C         140.1049  145.8160  162.3766 C.3     1  UNL1        0.1152
     10 C         139.3731  144.5179  162.2055 C.ar    1  UNL1        0.0765
     11 C         138.4056  144.0584  163.2557 C.ar    1  UNL1        0.0193
     12 C         137.6737  142.7602  163.0846 C.ar    1  UNL1        0.0411
     13 C         137.9093  141.9216  161.8635 C.ar    1  UNL1        0.1708
     14 C         138.8769  142.3812  160.8133 C.ar    1  UNL1        0.1682
     15 N         139.6087  143.6793  160.9844 N.ar    1  UNL1       -0.2304
     16 N         139.1125  141.5426  159.5922 N.am    1  UNL1       -0.2639
     17 C         138.3806  140.2445  159.4211 C.2     1  UNL1        0.2718
     18 O         138.6162  139.4059  158.2000 O.2     1  UNL1       -0.2707
     19 C         137.4131  139.7850  160.4712 C.3     1  UNL1        0.2898
     20 O         137.1774  140.6236  161.6924 O.3     1  UNL1       -0.4628
     21 H         139.7475  141.8442  158.9029 H       1  UNL1        0.1565
     22 C         144.5219  140.7689  163.8825 C.3     1  UNL1        0.0942
     23 C         143.8284  139.5370  164.3840 C.3     1  UNL1        0.1157
     24 C         139.6732  139.2163  166.0816 C.ar    1  UNL1        0.1402
     25 C         138.5781  138.5895  165.2706 C.ar    1  UNL1        0.0401
     26 C         138.8679  138.0696  163.8938 C.ar    1  UNL1        0.0413
     27 C         140.2529  138.1765  163.3279 C.ar    1  UNL1        0.1530
     28 C         141.3481  138.8033  164.1389 C.ar    1  UNL1        0.0912
     29 C         141.0582  139.3232  165.5157 C.ar    1  UNL1        0.0549
     30 N         142.7332  138.9102  163.5730 N.am    1  UNL1       -0.2515
     31 C         143.0231  138.3904  162.1962 C.2     1  UNL1        0.2740
     32 O         144.4081  138.4973  161.6303 O.2     1  UNL1       -0.2705
     33 C         141.9278  137.7635  161.3852 C.3     1  UNL1        0.2900
     34 O         140.5428  137.6566  161.9511 O.3     1  UNL1       -0.4643
     35 C         140.5112  140.1485  168.3573 C.3     1  UNL1        0.2525
     36 O         139.3834  139.7362  167.4585 O.3     1  UNL1       -0.4714
@<TRIPOS>BOND
     1    35    36    1
     2    36    24    1
     3    24    25   ar
     4    25    26   ar
     5    26    27   ar
     6    27    28   ar
     7    28    29   ar
     8    28    30    1
     9    30    23    1
    10    23    22    1
    11    22     1    1
    12     1     2    1
    13     2     3    1
    14     3     4    1
    15     4     7    1
    16     7     9    1
    17     9    10    1
    18    10    11   ar
    19    11    12   ar
    20    12    13   ar
    21    13    14   ar
    22    14    15   ar
    23    14    16    1
    24    16    17   am
    25    17    18    2
    26    17    19    1
    27    19    20    1
    28     4     5    1
    29     5     6    1
    30    30    31   am
    31    31    32    2
    32    31    33    1
    33    33    34    1
    34    29    24   ar
    35     6     1    1
    36    34    27    1
    37    15    10   ar
    38    20    13    1
    39     7     8    1
    40    16    21    1
@<TRIPOS>MOLECULE
*****
 36 40 0 0 0
SMALL
GASTEIGER

@<TRIPOS>ATOM
      1 N         142.9424  138.6434  162.9582 N.3     1  UNL1       -0.2711
      2 C         142.0218  137.8923  163.8738 C.3     1  UNL1        0.0735
      3 C         140.6284  137.5601  163.4290 C.3     1  UNL1        0.0331
      4 C         140.1555  137.9791  162.0686 C.3     1  UNL1        0.0570
      5 C         141.0760  138.7302  161.1530 C.3     1  UNL1        0.0331
      6 C         142.4695  139.0624  161.5978 C.3     1  UNL1        0.0735
      7 N         138.7619  137.6470  161.6238 N.3     1  UNL1       -0.2934
      8 H         138.4473  136.8660  162.1996 H       1  UNL1        0.1236
      9 C         137.6864  138.6908  161.6847 C.3     1  UNL1        0.1152
     10 C         137.9357  139.9835  162.4035 C.ar    1  UNL1        0.0765
     11 C         137.9055  140.0260  163.9025 C.ar    1  UNL1        0.0193
     12 C         138.1548  141.3187  164.6214 C.ar    1  UNL1        0.0411
     13 C         138.4343  142.5689  163.8412 C.ar    1  UNL1        0.1708
     14 C         138.4645  142.5264  162.3420 C.ar    1  UNL1        0.1682
     15 N         138.2152  141.2337  161.6232 N.ar    1  UNL1       -0.2304
     16 N         138.7439  143.7767  161.5618 N.am    1  UNL1       -0.2639
     17 C         138.9932  145.0694  162.2807 C.2     1  UNL1        0.2718
     18 O         139.2727  146.3197  161.5004 O.2     1  UNL1       -0.2707
     19 C         138.9630  145.1119  163.7797 C.3     1  UNL1        0.2898
     20 O         138.6836  143.8616  164.5600 O.3     1  UNL1       -0.4628
     21 H         138.7637  143.7488  160.5779 H       1  UNL1        0.1565
     22 C         144.3359  138.9755  163.4031 C.3     1  UNL1        0.0942
     23 C         144.5554  139.9843  164.4912 C.3     1  UNL1        0.1157
     24 C         141.5783  140.4677  167.8309 C.ar    1  UNL1        0.1402
     25 C         140.7204  141.6962  167.8988 C.ar    1  UNL1        0.0401
     26 C         140.8548  142.7636  166.8536 C.ar    1  UNL1        0.0413
     27 C         141.8471  142.6025  165.7404 C.ar    1  UNL1        0.1530
     28 C         142.7051  141.3740  165.6724 C.ar    1  UNL1        0.0912
     29 C         142.5707  140.3066  166.7177 C.ar    1  UNL1        0.0549
     30 N         143.6975  141.2129  164.5592 N.am    1  UNL1       -0.2515
     31 C         143.8319  142.2803  163.5139 C.2     1  UNL1        0.2740
     32 O         144.8242  142.1192  162.4007 O.2     1  UNL1       -0.2705
     33 C         142.9739  143.5088  163.5819 C.3     1  UNL1        0.2900
     34 O         141.9815  143.6699  164.6951 O.3     1  UNL1       -0.4643
     35 C         142.4498  139.3054  169.9849 C.3     1  UNL1        0.2525
     36 O         141.4440  139.4003  168.8761 O.3     1  UNL1       -0.4714
@<TRIPOS>BOND
     1    35    36    1
     2    36    24    1
     3    24    25   ar
     4    25    26   ar
     5    26    27   ar
     6    27    28   ar
     7    28    29   ar
     8    28    30    1
     9    30    23    1
    10    23    22    1
    11    22     1    1
    12     1     2    1
    13     2     3    1
    14     3     4    1
    15     4     7    1
    16     7     9    1
    17     9    10    1
    18    10    11   ar
    19    11    12   ar
    20    12    13   ar
    21    13    14   ar
    22    14    15   ar
    23    14    16    1
    24    16    17   am
    25    17    18    2
    26    17    19    1
    27    19    20    1
    28     4     5    1
    29     5     6    1
    30    30    31   am
    31    31    32    2
    32    31    33    1
    33    33    34    1
    34    29    24   ar
    35     6     1    1
    36    34    27    1
    37    15    10   ar
    38    20    13    1
    39     7     8    1
    40    16    21    1
@<TRIPOS>MOLECULE
*****
 36 40 0 0 0
SMALL
GASTEIGER

@<TRIPOS>ATOM
      1 N         138.3982  140.0986  164.0803 N.3     1  UNL1       -0.2711
      2 C         138.1927  140.3346  162.6133 C.3     1  UNL1        0.0735
      3 C         137.9342  141.7223  162.1059 C.3     1  UNL1        0.0331
      4 C         137.8812  142.8739  163.0655 C.3     1  UNL1        0.0570
      5 C         138.0867  142.6379  164.5325 C.3     1  UNL1        0.0331
      6 C         138.3452  141.2502  165.0399 C.3     1  UNL1        0.0735
      7 N         137.6227  144.2617  162.5582 N.3     1  UNL1       -0.2934
      8 H         136.8847  144.6558  163.1416 H       1  UNL1        0.1236
      9 C         138.7344  145.2683  162.5275 C.3     1  UNL1        0.1152
     10 C         140.1567  144.8110  162.3932 C.ar    1  UNL1        0.0765
     11 C         141.1533  145.1356  163.4662 C.ar    1  UNL1        0.0193
     12 C         142.5756  144.6783  163.3320 C.ar    1  UNL1        0.0411
     13 C         143.0012  143.8964  162.1247 C.ar    1  UNL1        0.1708
     14 C         142.0045  143.5718  161.0517 C.ar    1  UNL1        0.1682
     15 N         140.5823  144.0291  161.1860 N.ar    1  UNL1       -0.2304
     16 N         142.4302  142.7900  159.8444 N.am    1  UNL1       -0.2639
     17 C         143.8525  142.3327  159.7101 C.2     1  UNL1        0.2718
     18 O         144.2781  141.5509  158.5029 O.2     1  UNL1       -0.2707
     19 C         144.8491  142.6573  160.7831 C.3     1  UNL1        0.2898
     20 O         144.4235  143.4391  161.9904 O.3     1  UNL1       -0.4628
     21 H         141.7760  142.5770  159.1401 H       1  UNL1        0.1565
     22 C         138.6567  138.7108  164.5876 C.3     1  UNL1        0.0942
     23 C         140.0246  138.3324  165.0730 C.3     1  UNL1        0.1157
     24 C         142.2834  141.7302  166.9713 C.ar    1  UNL1        0.1402
     25 C         143.5002  142.2912  166.2971 C.ar    1  UNL1        0.0401
     26 C         143.9641  141.7196  164.9902 C.ar    1  UNL1        0.0413
     27 C         143.2113  140.5870  164.3574 C.ar    1  UNL1        0.1530
     28 C         141.9944  140.0260  165.0316 C.ar    1  UNL1        0.0912
     29 C         141.5305  140.5976  166.3385 C.ar    1  UNL1        0.0549
     30 N         141.2415  138.8934  164.3989 N.am    1  UNL1       -0.2515
     31 C         141.7054  138.3218  163.0920 C.2     1  UNL1        0.2740
     32 O         140.9525  137.1892  162.4592 O.2     1  UNL1       -0.2705
     33 C         142.9223  138.8829  162.4178 C.3     1  UNL1        0.2900
     34 O         143.6752  140.0154  163.0505 O.3     1  UNL1       -0.4643
     35 C         140.4536  142.9123  168.3871 C.3     1  UNL1        0.2525
     36 O         141.8194  142.3018  168.2782 O.3     1  UNL1       -0.4714
@<TRIPOS>BOND
     1    35    36    1
     2    36    24    1
     3    24    25   ar
     4    25    26   ar
     5    26    27   ar
     6    27    28   ar
     7    28    29   ar
     8    28    30    1
     9    30    23    1
    10    23    22    1
    11    22     1    1
    12     1     2    1
    13     2     3    1
    14     3     4    1
    15     4     7    1
    16     7     9    1
    17     9    10    1
    18    10    11   ar
    19    11    12   ar
    20    12    13   ar
    21    13    14   ar
    22    14    15   ar
    23    14    16    1
    24    16    17   am
    25    17    18    2
    26    17    19    1
    27    19    20    1
    28     4     5    1
    29     5     6    1
    30    30    31   am
    31    31    32    2
    32    31    33    1
    33    33    34    1
    34    29    24   ar
    35     6     1    1
    36    34    27    1
    37    15    10   ar
    38    20    13    1
    39     7     8    1
    40    16    21    1
