@<TRIPOS>MOLECULE
*****
 22 24 0 0 0
SMALL
GASTEIGER

@<TRIPOS>ATOM
      1 C         139.6355  146.0534  161.7975 C.3     1  UNL1        0.0310
      2 C         139.7146  144.9289  162.7870 C.ar    1  UNL1       -0.0222
      3 C         140.7914  144.9229  163.8312 C.ar    1  UNL1       -0.0043
      4 C         140.8704  143.7984  164.8207 C.ar    1  UNL1       -0.0009
      5 C         139.8727  142.6797  164.7659 C.ar    1  UNL1       -0.0079
      6 C         138.7959  142.6856  163.7217 C.ar    1  UNL1       -0.0187
      7 C         138.7169  143.8102  162.7322 C.ar    1  UNL1       -0.0082
      8 C         137.9586  141.4556  163.9122 C.3     1  UNL1        0.0480
      9 C         138.5180  140.6896  165.0742 C.2     1  UNL1       -0.0420
     10 C         139.7010  141.4461  165.6018 C.2     1  UNL1       -0.0240
     11 C         137.9876  139.3944  165.6139 C.3     1  UNL1        0.0394
     12 C         138.7942  138.1374  165.4746 C.3     1  UNL1        0.0765
     13 N         139.6166  137.9069  164.2415 N.3     1  UNL1       -0.2700
     14 C         138.9423  137.7119  162.9159 C.3     1  UNL1        0.0897
     15 C         141.1133  137.8713  164.3342 C.3     1  UNL1        0.0897
     16 C         140.5612  141.0403  166.7617 C.3     1  UNL1        0.0730
     17 C         140.3097  141.6214  168.1215 C.ar    1  UNL1        0.0825
     18 C         139.6533  140.7894  169.1830 C.ar    1  UNL1        0.1139
     19 N         139.4018  141.3705  170.5428 N.ar    1  UNL1       -0.2394
     20 C         139.8067  142.7837  170.8411 C.ar    1  UNL1        0.1195
     21 C         140.4631  143.6157  169.7796 C.ar    1  UNL1        0.1191
     22 N         140.7146  143.0346  168.4198 N.ar    1  UNL1       -0.2446
@<TRIPOS>BOND
     1     1     2    1
     2     2     3   ar
     3     3     4   ar
     4     4     5   ar
     5     5     6   ar
     6     6     7   ar
     7     6     8    1
     8     8     9    1
     9     9    11    1
    10    11    12    1
    11    12    13    1
    12    13    14    1
    13    13    15    1
    14     9    10    2
    15    10    16    1
    16    16    17    1
    17    17    18   ar
    18    18    19   ar
    19    19    20   ar
    20    20    21   ar
    21    21    22   ar
    22     7     2   ar
    23    22    17   ar
    24    10     5    1
@<TRIPOS>MOLECULE
*****
 22 24 0 0 0
SMALL
GASTEIGER

@<TRIPOS>ATOM
      1 C         143.2922  141.7451  169.5146 C.3     1  UNL1        0.0310
      2 C         142.2028  141.4929  168.5148 C.ar    1  UNL1       -0.0222
      3 C         141.6796  140.1021  168.3104 C.ar    1  UNL1       -0.0043
      4 C         140.5902  139.8499  167.3107 C.ar    1  UNL1       -0.0009
      5 C         140.0239  140.9886  166.5152 C.ar    1  UNL1       -0.0079
      6 C         140.5471  142.3794  166.7196 C.ar    1  UNL1       -0.0187
      7 C         141.6365  142.6316  167.7194 C.ar    1  UNL1       -0.0082
      8 C         139.7997  143.2961  165.7970 C.3     1  UNL1        0.0480
      9 C         138.8146  142.4717  165.0225 C.2     1  UNL1       -0.0420
     10 C         138.9532  141.0456  165.4664 C.2     1  UNL1       -0.0240
     11 C         137.8586  142.9836  163.9859 C.3     1  UNL1        0.0394
     12 C         138.0446  144.3543  163.4060 C.3     1  UNL1        0.0765
     13 N         138.9658  144.5566  162.2396 N.3     1  UNL1       -0.2700
     14 C         139.6349  145.8832  162.0336 C.3     1  UNL1        0.0897
     15 C         139.2179  143.4322  161.2793 C.3     1  UNL1        0.0897
     16 C         138.1602  139.8810  164.9517 C.3     1  UNL1        0.0730
     17 C         138.5019  139.2682  163.6259 C.ar    1  UNL1        0.0825
     18 C         139.5945  138.2449  163.5318 C.ar    1  UNL1        0.1139
     19 N         139.9362  137.6322  162.2060 N.ar    1  UNL1       -0.2394
     20 C         139.1852  138.0428  160.9742 C.ar    1  UNL1        0.1195
     21 C         138.0926  139.0661  161.0682 C.ar    1  UNL1        0.1191
     22 N         137.7509  139.6789  162.3941 N.ar    1  UNL1       -0.2446
@<TRIPOS>BOND
     1     1     2    1
     2     2     3   ar
     3     3     4   ar
     4     4     5   ar
     5     5     6   ar
     6     6     7   ar
     7     6     8    1
     8     8     9    1
     9     9    11    1
    10    11    12    1
    11    12    13    1
    12    13    14    1
    13    13    15    1
    14     9    10    2
    15    10    16    1
    16    16    17    1
    17    17    18   ar
    18    18    19   ar
    19    19    20   ar
    20    20    21   ar
    21    21    22   ar
    22     7     2   ar
    23    22    17   ar
    24    10     5    1
@<TRIPOS>MOLECULE
*****
 22 24 0 0 0
SMALL
GASTEIGER

@<TRIPOS>ATOM
      1 C         143.7154  142.2436  169.7642 C.3     1  UNL1        0.0310
      2 C         142.6814  141.7043  168.8208 C.ar    1  UNL1       -0.0222
      3 C         141.3476  142.3804  168.7038 C.ar    1  UNL1       -0.0043
      4 C         140.3136  141.8411  167.7604 C.ar    1  UNL1       -0.0009
      5 C         140.6134  140.6258  166.9339 C.ar    1  UNL1       -0.0079
      6 C         141.9473  139.9497  167.0509 C.ar    1  UNL1       -0.0187
      7 C         142.9813  140.4890  167.9944 C.ar    1  UNL1       -0.0082
      8 C         141.9564  138.7773  166.1153 C.3     1  UNL1        0.0480
      9 C         140.6282  138.7288  165.4200 C.2     1  UNL1       -0.0420
     10 C         139.7982  139.8712  165.9260 C.2     1  UNL1       -0.0240
     11 C         140.2043  137.7157  164.3981 C.3     1  UNL1        0.0394
     12 C         141.1789  137.2451  163.3595 C.3     1  UNL1        0.0765
     13 N         141.0356  137.6978  161.9367 N.3     1  UNL1       -0.2700
     14 C         142.2488  137.8221  161.0634 C.3     1  UNL1        0.0897
     15 C         139.6791  138.0263  161.3872 C.3     1  UNL1        0.0897
     16 C         138.3986  140.2012  165.4990 C.3     1  UNL1        0.0730
     17 C         138.1629  141.2240  164.4274 C.ar    1  UNL1        0.0825
     18 C         137.7965  140.7863  163.0403 C.ar    1  UNL1        0.1139
     19 N         137.5607  141.8092  161.9688 N.ar    1  UNL1       -0.2394
     20 C         137.6914  143.2698  162.2844 C.ar    1  UNL1        0.1195
     21 C         138.0577  143.7075  163.6715 C.ar    1  UNL1        0.1191
     22 N         138.2935  142.6846  164.7430 N.ar    1  UNL1       -0.2446
@<TRIPOS>BOND
     1     1     2    1
     2     2     3   ar
     3     3     4   ar
     4     4     5   ar
     5     5     6   ar
     6     6     7   ar
     7     6     8    1
     8     8     9    1
     9     9    11    1
    10    11    12    1
    11    12    13    1
    12    13    14    1
    13    13    15    1
    14     9    10    2
    15    10    16    1
    16    16    17    1
    17    17    18   ar
    18    18    19   ar
    19    19    20   ar
    20    20    21   ar
    21    21    22   ar
    22     7     2   ar
    23    22    17   ar
    24    10     5    1
@<TRIPOS>MOLECULE
*****
 22 24 0 0 0
SMALL
GASTEIGER

@<TRIPOS>ATOM
      1 C         139.6381  142.8955  170.6917 C.3     1  UNL1        0.0310
      2 C         140.2800  142.1229  169.5776 C.ar    1  UNL1       -0.0222
      3 C         139.8698  140.7042  169.3153 C.ar    1  UNL1       -0.0043
      4 C         140.5117  139.9317  168.2012 C.ar    1  UNL1       -0.0009
      5 C         141.5638  140.5779  167.3495 C.ar    1  UNL1       -0.0079
      6 C         141.9740  141.9967  167.6118 C.ar    1  UNL1       -0.0187
      7 C         141.3321  142.7692  168.7259 C.ar    1  UNL1       -0.0082
      8 C         143.0309  142.3658  166.6135 C.3     1  UNL1        0.0480
      9 C         143.2740  141.1752  165.7341 C.2     1  UNL1       -0.0420
     10 C         142.3672  140.0702  166.1890 C.2     1  UNL1       -0.0240
     11 C         144.2520  141.1023  164.5991 C.3     1  UNL1        0.0394
     12 C         145.0237  142.3233  164.1945 C.3     1  UNL1        0.0765
     13 N         144.4194  143.3105  163.2405 N.3     1  UNL1       -0.2700
     14 C         143.8654  144.6066  163.7535 C.3     1  UNL1        0.0897
     15 C         144.3692  143.0016  161.7736 C.3     1  UNL1        0.0897
     16 C         142.2793  138.6984  165.5888 C.3     1  UNL1        0.0730
     17 C         141.2471  138.4027  164.5414 C.ar    1  UNL1        0.0825
     18 C         141.6493  137.7374  163.2586 C.ar    1  UNL1        0.1139
     19 N         140.6171  137.4417  162.2112 N.ar    1  UNL1       -0.2394
     20 C         139.1825  137.8114  162.4466 C.ar    1  UNL1        0.1195
     21 C         138.7802  138.4767  163.7294 C.ar    1  UNL1        0.1191
     22 N         139.8125  138.7723  164.7768 N.ar    1  UNL1       -0.2446
@<TRIPOS>BOND
     1     1     2    1
     2     2     3   ar
     3     3     4   ar
     4     4     5   ar
     5     5     6   ar
     6     6     7   ar
     7     6     8    1
     8     8     9    1
     9     9    11    1
    10    11    12    1
    11    12    13    1
    12    13    14    1
    13    13    15    1
    14     9    10    2
    15    10    16    1
    16    16    17    1
    17    17    18   ar
    18    18    19   ar
    19    19    20   ar
    20    20    21   ar
    21    21    22   ar
    22     7     2   ar
    23    22    17   ar
    24    10     5    1
@<TRIPOS>MOLECULE
*****
 22 24 0 0 0
SMALL
GASTEIGER

@<TRIPOS>ATOM
      1 C         139.1192  140.4599  169.5893 C.3     1  UNL1        0.0310
      2 C         139.3940  139.9086  168.2216 C.ar    1  UNL1       -0.0222
      3 C         138.3007  139.2255  167.4547 C.ar    1  UNL1       -0.0043
      4 C         138.5755  138.6742  166.0870 C.ar    1  UNL1       -0.0009
      5 C         139.9436  138.8059  165.4863 C.ar    1  UNL1       -0.0079
      6 C         141.0369  139.4889  166.2532 C.ar    1  UNL1       -0.0187
      7 C         140.7621  140.0402  167.6209 C.ar    1  UNL1       -0.0082
      8 C         142.2769  139.4695  165.4093 C.3     1  UNL1        0.0480
      9 C         141.9500  138.7745  164.1209 C.2     1  UNL1       -0.0420
     10 C         140.5079  138.3644  164.1685 C.2     1  UNL1       -0.0240
     11 C         142.8985  138.5322  162.9844 C.3     1  UNL1        0.0394
     12 C         144.3112  139.0297  163.0675 C.3     1  UNL1        0.0765
     13 N         144.6272  140.4528  162.7143 N.3     1  UNL1       -0.2700
     14 C         144.0331  141.0696  161.4828 C.3     1  UNL1        0.0897
     15 C         145.5374  141.2591  163.5925 C.3     1  UNL1        0.0897
     16 C         139.7612  137.6399  163.0879 C.3     1  UNL1        0.0730
     17 C         139.2407  138.3944  161.9006 C.ar    1  UNL1        0.0825
     18 C         139.9875  138.3545  160.6003 C.ar    1  UNL1        0.1139
     19 N         139.4669  139.1090  159.4130 N.ar    1  UNL1       -0.2394
     20 C         138.1996  139.9035  159.5259 C.ar    1  UNL1        0.1195
     21 C         137.4529  139.9434  160.8262 C.ar    1  UNL1        0.1191
     22 N         137.9734  139.1889  162.0135 N.ar    1  UNL1       -0.2446
@<TRIPOS>BOND
     1     1     2    1
     2     2     3   ar
     3     3     4   ar
     4     4     5   ar
     5     5     6   ar
     6     6     7   ar
     7     6     8    1
     8     8     9    1
     9     9    11    1
    10    11    12    1
    11    12    13    1
    12    13    14    1
    13    13    15    1
    14     9    10    2
    15    10    16    1
    16    16    17    1
    17    17    18   ar
    18    18    19   ar
    19    19    20   ar
    20    20    21   ar
    21    21    22   ar
    22     7     2   ar
    23    22    17   ar
    24    10     5    1
@<TRIPOS>MOLECULE
*****
 22 24 0 0 0
SMALL
GASTEIGER

@<TRIPOS>ATOM
      1 C         141.1192  143.5052  169.9493 C.3     1  UNL1        0.0310
      2 C         141.2706  142.3968  168.9501 C.ar    1  UNL1       -0.0222
      3 C         142.6372  141.8986  168.5839 C.ar    1  UNL1       -0.0043
      4 C         142.7886  140.7902  167.5846 C.ar    1  UNL1       -0.0009
      5 C         141.5733  140.1800  166.9516 C.ar    1  UNL1       -0.0079
      6 C         140.2067  140.6782  167.3178 C.ar    1  UNL1       -0.0187
      7 C         140.0554  141.7866  168.3170 C.ar    1  UNL1       -0.0082
      8 C         139.2002  139.8884  166.5346 C.3     1  UNL1        0.0480
      9 C         139.9448  138.9022  165.6844 C.2     1  UNL1       -0.0420
     10 C         141.4115  139.0824  165.9421 C.2     1  UNL1       -0.0240
     11 C         139.3305  137.9099  164.7420 C.3     1  UNL1        0.0394
     12 C         139.0960  138.2831  163.3082 C.3     1  UNL1        0.0765
     13 N         139.0124  139.7277  162.9133 N.3     1  UNL1       -0.2700
     14 C         137.7429  140.4944  163.1381 C.3     1  UNL1        0.0897
     15 C         140.1983  140.4056  162.2936 C.3     1  UNL1        0.0897
     16 C         142.5214  138.3019  165.3027 C.3     1  UNL1        0.0730
     17 C         143.0481  138.7106  163.9589 C.ar    1  UNL1        0.0825
     18 C         143.9250  139.9211  163.8335 C.ar    1  UNL1        0.1139
     19 N         144.4517  140.3297  162.4898 N.ar    1  UNL1       -0.2394
     20 C         144.1015  139.5278  161.2714 C.ar    1  UNL1        0.1195
     21 C         143.2246  138.3173  161.3968 C.ar    1  UNL1        0.1191
     22 N         142.6979  137.9087  162.7406 N.ar    1  UNL1       -0.2446
@<TRIPOS>BOND
     1     1     2    1
     2     2     3   ar
     3     3     4   ar
     4     4     5   ar
     5     5     6   ar
     6     6     7   ar
     7     6     8    1
     8     8     9    1
     9     9    11    1
    10    11    12    1
    11    12    13    1
    12    13    14    1
    13    13    15    1
    14     9    10    2
    15    10    16    1
    16    16    17    1
    17    17    18   ar
    18    18    19   ar
    19    19    20   ar
    20    20    21   ar
    21    21    22   ar
    22     7     2   ar
    23    22    17   ar
    24    10     5    1
@<TRIPOS>MOLECULE
*****
 22 24 0 0 0
SMALL
GASTEIGER

@<TRIPOS>ATOM
      1 C         142.7794  143.1098  170.3665 C.3     1  UNL1        0.0310
      2 C         142.1274  142.2014  169.3666 C.ar    1  UNL1       -0.0222
      3 C         140.6350  142.1993  169.2164 C.ar    1  UNL1       -0.0043
      4 C         139.9831  141.2909  168.2166 C.ar    1  UNL1       -0.0009
      5 C         140.8236  140.3844  167.3670 C.ar    1  UNL1       -0.0079
      6 C         142.3160  140.3864  167.5172 C.ar    1  UNL1       -0.0187
      7 C         142.9679  141.2949  168.5171 C.ar    1  UNL1       -0.0082
      8 C         142.8808  139.3904  166.5481 C.3     1  UNL1        0.0480
      9 C         141.7374  138.7729  165.7990 C.2     1  UNL1       -0.0420
     10 C         140.4660  139.3872  166.3051 C.2     1  UNL1       -0.0240
     11 C         141.8462  137.7250  164.7312 C.3     1  UNL1        0.0394
     12 C         141.9597  138.1302  163.2915 C.3     1  UNL1        0.0765
     13 N         142.5326  139.4691  162.9321 N.3     1  UNL1       -0.2700
     14 C         141.6193  140.6053  162.5787 C.3     1  UNL1        0.0897
     15 C         144.0188  139.6718  162.9262 C.3     1  UNL1        0.0897
     16 C         139.0802  139.0615  165.8323 C.3     1  UNL1        0.0730
     17 C         138.5717  139.6397  164.5450 C.ar    1  UNL1        0.0825
     18 C         138.1645  141.0819  164.4796 C.ar    1  UNL1        0.1139
     19 N         137.6560  141.6600  163.1923 N.ar    1  UNL1       -0.2394
     20 C         137.5547  140.7960  161.9703 C.ar    1  UNL1        0.1195
     21 C         137.9619  139.3539  162.0357 C.ar    1  UNL1        0.1191
     22 N         138.4704  138.7757  163.3230 N.ar    1  UNL1       -0.2446
@<TRIPOS>BOND
     1     1     2    1
     2     2     3   ar
     3     3     4   ar
     4     4     5   ar
     5     5     6   ar
     6     6     7   ar
     7     6     8    1
     8     8     9    1
     9     9    11    1
    10    11    12    1
    11    12    13    1
    12    13    14    1
    13    13    15    1
    14     9    10    2
    15    10    16    1
    16    16    17    1
    17    17    18   ar
    18    18    19   ar
    19    19    20   ar
    20    20    21   ar
    21    21    22   ar
    22     7     2   ar
    23    22    17   ar
    24    10     5    1
@<TRIPOS>MOLECULE
*****
 22 24 0 0 0
SMALL
GASTEIGER

@<TRIPOS>ATOM
      1 C         141.2102  140.6276  171.0154 C.3     1  UNL1        0.0310
      2 C         141.0647  140.2993  169.5590 C.ar    1  UNL1       -0.0222
      3 C         139.7057  140.2902  168.9243 C.ar    1  UNL1       -0.0043
      4 C         139.5603  139.9619  167.4679 C.ar    1  UNL1       -0.0009
      5 C         140.7739  139.6428  166.6462 C.ar    1  UNL1       -0.0079
      6 C         142.1329  139.6520  167.2809 C.ar    1  UNL1       -0.0187
      7 C         142.2784  139.9803  168.7373 C.ar    1  UNL1       -0.0082
      8 C         143.1395  139.2993  166.2261 C.3     1  UNL1        0.0480
      9 C         142.4025  139.0722  164.9396 C.2     1  UNL1       -0.0420
     10 C         140.9405  139.2845  165.1992 C.2     1  UNL1       -0.0240
     11 C         143.0192  138.6984  163.6242 C.3     1  UNL1        0.0394
     12 C         144.3762  139.2213  163.2566 C.3     1  UNL1        0.0765
     13 N         144.5791  140.6909  163.0355 N.3     1  UNL1       -0.2700
     14 C         145.7012  141.4058  163.7283 C.3     1  UNL1        0.0897
     15 C         143.6599  141.4458  162.1216 C.3     1  UNL1        0.0897
     16 C         139.8385  139.1602  164.1892 C.3     1  UNL1        0.0730
     17 C         139.2209  140.3926  163.5976 C.ar    1  UNL1        0.0825
     18 C         137.7429  140.4446  163.3472 C.ar    1  UNL1        0.1139
     19 N         137.1253  141.6769  162.7556 N.ar    1  UNL1       -0.2394
     20 C         137.9858  142.8572  162.4143 C.ar    1  UNL1        0.1195
     21 C         139.4638  142.8051  162.6646 C.ar    1  UNL1        0.1191
     22 N         140.0814  141.5728  163.2562 N.ar    1  UNL1       -0.2446
@<TRIPOS>BOND
     1     1     2    1
     2     2     3   ar
     3     3     4   ar
     4     4     5   ar
     5     5     6   ar
     6     6     7   ar
     7     6     8    1
     8     8     9    1
     9     9    11    1
    10    11    12    1
    11    12    13    1
    12    13    14    1
    13    13    15    1
    14     9    10    2
    15    10    16    1
    16    16    17    1
    17    17    18   ar
    18    18    19   ar
    19    19    20   ar
    20    20    21   ar
    21    21    22   ar
    22     7     2   ar
    23    22    17   ar
    24    10     5    1
@<TRIPOS>MOLECULE
*****
 22 24 0 0 0
SMALL
GASTEIGER

@<TRIPOS>ATOM
      1 C         140.5452  141.6845  170.7768 C.3     1  UNL1        0.0310
      2 C         140.4501  141.4949  169.2919 C.ar    1  UNL1       -0.0222
      3 C         141.2183  142.3951  168.3702 C.ar    1  UNL1       -0.0043
      4 C         141.1233  142.2055  166.8853 C.ar    1  UNL1       -0.0009
      5 C         140.2599  141.1159  166.3220 C.ar    1  UNL1       -0.0079
      6 C         139.4917  140.2158  167.2437 C.ar    1  UNL1       -0.0187
      7 C         139.5868  140.4053  168.7286 C.ar    1  UNL1       -0.0082
      8 C         138.7280  139.2351  166.4039 C.3     1  UNL1        0.0480
      9 C         139.0243  139.5292  164.9632 C.2     1  UNL1       -0.0420
     10 C         139.9711  140.6916  164.9126 C.2     1  UNL1       -0.0240
     11 C         138.4709  138.7907  163.7806 C.3     1  UNL1        0.0394
     12 C         139.2282  137.6350  163.1967 C.3     1  UNL1        0.0765
     13 N         140.1326  137.8490  162.0194 N.3     1  UNL1       -0.2700
     14 C         139.5502  138.1693  160.6746 C.3     1  UNL1        0.0897
     15 C         141.6194  137.7427  162.1867 C.3     1  UNL1        0.0897
     16 C         140.5308  141.3195  163.6706 C.3     1  UNL1        0.0730
     17 C         140.0636  142.6787  163.2414 C.ar    1  UNL1        0.0825
     18 C         138.6195  142.9035  162.9037 C.ar    1  UNL1        0.1139
     19 N         138.1524  144.2627  162.4745 N.ar    1  UNL1       -0.2394
     20 C         139.1293  145.3973  162.3830 C.ar    1  UNL1        0.1195
     21 C         140.5734  145.1725  162.7208 C.ar    1  UNL1        0.1191
     22 N         141.0405  143.8133  163.1499 N.ar    1  UNL1       -0.2446
@<TRIPOS>BOND
     1     1     2    1
     2     2     3   ar
     3     3     4   ar
     4     4     5   ar
     5     5     6   ar
     6     6     7   ar
     7     6     8    1
     8     8     9    1
     9     9    11    1
    10    11    12    1
    11    12    13    1
    12    13    14    1
    13    13    15    1
    14     9    10    2
    15    10    16    1
    16    16    17    1
    17    17    18   ar
    18    18    19   ar
    19    19    20   ar
    20    20    21   ar
    21    21    22   ar
    22     7     2   ar
    23    22    17   ar
    24    10     5    1
