@<TRIPOS>MOLECULE
*****
 45 48 0 0 0
SMALL
GASTEIGER

@<TRIPOS>ATOM
      1 C         140.3286  145.0088  160.7263 C.3     1  UNL1        0.0412
      2 C         140.8104  145.7436  159.5107 C.3     1  UNL1        0.0249
      3 C         140.3527  144.9864  158.2994 C.3     1  UNL1        0.0935
      4 N         139.5880  143.7834  158.7665 N.am    1  UNL1       -0.2795
      5 C         138.9502  142.7484  157.8880 C.2     1  UNL1        0.2256
      6 O         139.0485  142.8673  156.3960 O.2     1  UNL1       -0.2749
      7 C         139.5731  143.7973  160.2664 C.3     1  UNL1        0.0951
      8 C         140.5613  145.4142  162.1516 C.3     1  UNL1        0.0914
      9 C         140.2019  144.1156  164.3729 C.2     1  UNL1        0.2458
     10 O         138.9100  144.8459  164.5908 O.2     1  UNL1       -0.2701
     11 N         141.0276  144.3998  163.1533 N.am    1  UNL1       -0.3008
     12 H         141.8756  143.9205  163.0103 H       1  UNL1        0.1497
     13 C         142.1276  141.0369  165.9740 C.ar    1  UNL1       -0.0230
     14 C         141.6613  142.0513  164.9723 C.ar    1  UNL1        0.0002
     15 C         140.6683  143.1011  165.3747 C.ar    1  UNL1        0.0527
     16 C         140.1416  143.1365  166.7787 C.ar    1  UNL1        0.0002
     17 C         140.6080  142.1220  167.7804 C.ar    1  UNL1       -0.0230
     18 C         141.6009  141.0722  167.3780 C.ar    1  UNL1       -0.0086
     19 C         142.2187  138.9228  166.1228 C.3     1  UNL1        0.0044
     20 C         143.1206  139.9871  165.5716 C.3     1  UNL1        0.0189
     21 C         144.0224  141.0514  165.0204 C.3     1  UNL1        0.0044
     22 C         144.1136  138.9373  165.1692 C.3     1  UNL1        0.0044
     23 C         140.0813  142.1573  169.1845 C.3     1  UNL1        0.0189
     24 C         140.4645  143.6035  169.2919 C.3     1  UNL1        0.0044
     25 C         139.6981  140.7111  169.0771 C.3     1  UNL1        0.0044
     26 C         139.5547  142.1926  170.5885 C.3     1  UNL1        0.0044
     27 C         138.2140  141.5945  158.5015 C.3     1  UNL1        0.0853
     28 C         138.9686  140.3819  158.9599 C.3     1  UNL1        0.0096
     29 C         138.3733  139.4755  159.9964 C.3     1  UNL1        0.0012
     30 C         139.2596  138.5691  160.7983 C.3     1  UNL1        0.0087
     31 C         140.0037  139.1055  161.9852 C.3     1  UNL1        0.0446
     32 C         139.4160  138.9775  163.3592 C.ar    1  UNL1       -0.0183
     33 C         139.4011  137.6448  164.0473 C.ar    1  UNL1       -0.0017
     34 C         138.8133  137.5167  165.4214 C.ar    1  UNL1        0.0293
     35 C         138.2405  138.7214  166.1074 C.ar    1  UNL1        0.1401
     36 F         137.6528  138.5933  167.4816 F       1  UNL1       -0.2042
     37 C         138.2554  140.0541  165.4193 C.ar    1  UNL1        0.0293
     38 C         138.8432  140.1822  164.0452 C.ar    1  UNL1       -0.0017
     39 C         141.3355  139.7700  161.7979 C.ar    1  UNL1       -0.0183
     40 C         142.5918  138.9507  161.8179 C.ar    1  UNL1       -0.0017
     41 C         143.9235  139.6152  161.6306 C.ar    1  UNL1        0.0293
     42 C         143.9988  141.0989  161.4233 C.ar    1  UNL1        0.1401
     43 F         145.3305  141.7633  161.2360 F       1  UNL1       -0.2042
     44 C         142.7425  141.9181  161.4032 C.ar    1  UNL1        0.0293
     45 C         141.4107  141.2537  161.5905 C.ar    1  UNL1       -0.0017
@<TRIPOS>BOND
     1    19    20    1
     2    20    21    1
     3    20    22    1
     4    20    13    1
     5    13    14   ar
     6    14    15   ar
     7    15     9    1
     8     9    10    2
     9     9    11   am
    10    11     8    1
    11     1     8    1
    12     1     2    1
    13     2     3    1
    14     3     4    1
    15     4     5   am
    16     5     6    2
    17     5    27    1
    18    27    28    1
    19    28    29    1
    20    29    30    1
    21    30    31    1
    22    31    32    1
    23    32    33   ar
    24    33    34   ar
    25    34    35   ar
    26    35    36    1
    27    35    37   ar
    28    37    38   ar
    29    31    39    1
    30    39    40   ar
    31    40    41   ar
    32    41    42   ar
    33    42    43    1
    34    42    44   ar
    35    44    45   ar
    36     4     7    1
    37    15    16   ar
    38    16    17   ar
    39    17    23    1
    40    23    24    1
    41    23    25    1
    42    23    26    1
    43    17    18   ar
    44    18    13   ar
    45     7     1    1
    46    38    32   ar
    47    45    39   ar
    48    11    12    1
@<TRIPOS>MOLECULE
*****
 45 48 0 0 0
SMALL
GASTEIGER

@<TRIPOS>ATOM
      1 C         140.9103  144.8138  161.7625 C.3     1  UNL1        0.0412
      2 C         140.4944  145.5253  160.5091 C.3     1  UNL1        0.0249
      3 C         141.2967  144.9671  159.3712 C.3     1  UNL1        0.0935
      4 N         142.2084  143.9106  159.9213 N.am    1  UNL1       -0.2795
      5 C         143.1871  143.0924  159.1322 C.2     1  UNL1        0.2256
      6 O         143.3163  143.2995  157.6522 O.2     1  UNL1       -0.2749
      7 C         141.9696  143.8159  161.3992 C.3     1  UNL1        0.0951
      8 C         140.3630  145.0575  163.1376 C.3     1  UNL1        0.0914
      9 C         139.2502  143.2533  164.6397 C.2     1  UNL1        0.2458
     10 O         137.9143  143.5776  164.0397 O.2     1  UNL1       -0.2701
     11 N         140.4745  143.9933  164.1887 N.am    1  UNL1       -0.3008
     12 H         141.3514  143.7804  164.5826 H       1  UNL1        0.1497
     13 C         140.0794  141.4483  168.0755 C.ar    1  UNL1       -0.0230
     14 C         139.9677  142.5125  167.0244 C.ar    1  UNL1        0.0002
     15 C         139.3618  142.1890  165.6909 C.ar    1  UNL1        0.0527
     16 C         138.8676  140.8012  165.4085 C.ar    1  UNL1        0.0002
     17 C         138.9792  139.7370  166.4597 C.ar    1  UNL1       -0.0230
     18 C         139.5851  140.0605  167.7932 C.ar    1  UNL1       -0.0086
     19 C         140.5077  143.2358  169.1345 C.3     1  UNL1        0.0044
     20 C         140.6852  141.7719  169.4090 C.3     1  UNL1        0.0189
     21 C         140.8628  140.3079  169.6835 C.3     1  UNL1        0.0044
     22 C         141.2911  142.0954  170.7425 C.3     1  UNL1        0.0044
     23 C         138.4850  138.3491  166.1773 C.3     1  UNL1        0.0189
     24 C         137.5183  138.4611  167.3188 C.3     1  UNL1        0.0044
     25 C         139.4517  138.2371  165.0359 C.3     1  UNL1        0.0044
     26 C         137.9908  136.9613  165.8949 C.3     1  UNL1        0.0044
     27 C         144.0365  142.0672  159.8230 C.3     1  UNL1        0.0853
     28 C         143.5253  140.6688  160.0046 C.3     1  UNL1        0.0096
     29 C         144.2940  139.6924  160.8448 C.3     1  UNL1        0.0012
     30 C         143.6064  138.9540  161.9548 C.3     1  UNL1        0.0087
     31 C         142.4935  139.6112  162.7161 C.3     1  UNL1        0.0446
     32 C         142.7848  140.3271  164.0016 C.ar    1  UNL1       -0.0183
     33 C         143.1748  141.7754  163.9817 C.ar    1  UNL1       -0.0017
     34 C         143.4661  142.4914  165.2671 C.ar    1  UNL1        0.0293
     35 C         143.3674  141.7591  166.5725 C.ar    1  UNL1        0.1401
     36 F         143.6588  142.4751  167.8581 F       1  UNL1       -0.2042
     37 C         142.9774  140.3108  166.5924 C.ar    1  UNL1        0.0293
     38 C         142.6861  139.5948  165.3069 C.ar    1  UNL1       -0.0017
     39 C         141.0892  139.5524  162.1918 C.ar    1  UNL1       -0.0183
     40 C         140.5403  138.2613  161.6608 C.ar    1  UNL1       -0.0017
     41 C         139.1362  138.2026  161.1365 C.ar    1  UNL1        0.0293
     42 C         138.2809  139.4349  161.1433 C.ar    1  UNL1        0.1401
     43 F         136.8767  139.3761  160.6191 F       1  UNL1       -0.2042
     44 C         138.8298  140.7259  161.6743 C.ar    1  UNL1        0.0293
     45 C         140.2340  140.7847  162.1986 C.ar    1  UNL1       -0.0017
@<TRIPOS>BOND
     1    19    20    1
     2    20    21    1
     3    20    22    1
     4    20    13    1
     5    13    14   ar
     6    14    15   ar
     7    15     9    1
     8     9    10    2
     9     9    11   am
    10    11     8    1
    11     1     8    1
    12     1     2    1
    13     2     3    1
    14     3     4    1
    15     4     5   am
    16     5     6    2
    17     5    27    1
    18    27    28    1
    19    28    29    1
    20    29    30    1
    21    30    31    1
    22    31    32    1
    23    32    33   ar
    24    33    34   ar
    25    34    35   ar
    26    35    36    1
    27    35    37   ar
    28    37    38   ar
    29    31    39    1
    30    39    40   ar
    31    40    41   ar
    32    41    42   ar
    33    42    43    1
    34    42    44   ar
    35    44    45   ar
    36     4     7    1
    37    15    16   ar
    38    16    17   ar
    39    17    23    1
    40    23    24    1
    41    23    25    1
    42    23    26    1
    43    17    18   ar
    44    18    13   ar
    45     7     1    1
    46    38    32   ar
    47    45    39   ar
    48    11    12    1
@<TRIPOS>MOLECULE
*****
 45 48 0 0 0
SMALL
GASTEIGER

@<TRIPOS>ATOM
      1 C         140.3470  144.9929  160.8069 C.3     1  UNL1        0.0412
      2 C         140.9234  145.6616  159.5943 C.3     1  UNL1        0.0249
      3 C         140.4844  144.8887  158.3860 C.3     1  UNL1        0.0935
      4 N         139.6367  143.7423  158.8519 N.am    1  UNL1       -0.2795
      5 C         138.9878  142.7123  157.9755 C.2     1  UNL1        0.2256
      6 O         139.1626  142.7765  156.4871 O.2     1  UNL1       -0.2749
      7 C         139.5518  143.8067  160.3481 C.3     1  UNL1        0.0951
      8 C         140.5331  145.4330  162.2288 C.3     1  UNL1        0.0914
      9 C         140.1114  143.9361  164.3099 C.2     1  UNL1        0.2458
     10 O         138.6792  144.3810  164.3398 O.2     1  UNL1       -0.2701
     11 N         141.0383  144.4621  163.2544 N.am    1  UNL1       -0.3008
     12 H         141.9783  144.1701  163.2349 H       1  UNL1        0.1497
     13 C         142.1355  140.9573  165.9772 C.ar    1  UNL1       -0.0230
     14 C         141.6302  141.9282  164.9516 C.ar    1  UNL1        0.0002
     15 C         140.6167  142.9651  165.3356 C.ar    1  UNL1        0.0527
     16 C         140.1084  143.0311  166.7453 C.ar    1  UNL1        0.0002
     17 C         140.6137  142.0602  167.7709 C.ar    1  UNL1       -0.0230
     18 C         141.6273  141.0233  167.3869 C.ar    1  UNL1       -0.0086
     19 C         142.2467  138.8436  166.1187 C.3     1  UNL1        0.0044
     20 C         143.1491  139.9204  165.5931 C.3     1  UNL1        0.0189
     21 C         144.0515  140.9971  165.0675 C.3     1  UNL1        0.0044
     22 C         144.1626  138.8835  165.2090 C.3     1  UNL1        0.0044
     23 C         140.1055  142.1262  169.1807 C.3     1  UNL1        0.0189
     24 C         140.4344  143.5887  169.2309 C.3     1  UNL1        0.0044
     25 C         139.7765  140.6636  169.1305 C.3     1  UNL1        0.0044
     26 C         139.5972  142.1921  170.5904 C.3     1  UNL1        0.0044
     27 C         138.1642  141.6182  158.5874 C.3     1  UNL1        0.0853
     28 C         138.8077  140.3170  158.9653 C.3     1  UNL1        0.0096
     29 C         138.2354  139.4934  160.0807 C.3     1  UNL1        0.0012
     30 C         139.1229  138.5723  160.8644 C.3     1  UNL1        0.0087
     31 C         139.8919  139.0937  162.0420 C.3     1  UNL1        0.0446
     32 C         141.2288  139.7421  161.8371 C.ar    1  UNL1       -0.0183
     33 C         141.3142  141.2144  161.5628 C.ar    1  UNL1       -0.0017
     34 C         142.6511  141.8628  161.3579 C.ar    1  UNL1        0.0293
     35 C         143.9027  141.0390  161.4272 C.ar    1  UNL1        0.1401
     36 F         145.2398  141.6875  161.2223 F       1  UNL1       -0.2042
     37 C         143.8174  139.5668  161.7016 C.ar    1  UNL1        0.0293
     38 C         142.4804  138.9183  161.9065 C.ar    1  UNL1       -0.0017
     39 C         139.3238  138.9668  163.4246 C.ar    1  UNL1       -0.0183
     40 C         139.3781  137.6493  164.1397 C.ar    1  UNL1       -0.0017
     41 C         138.8100  137.5224  165.5221 C.ar    1  UNL1        0.0293
     42 C         138.1877  138.7130  166.1894 C.ar    1  UNL1        0.1401
     43 F         137.6196  138.5861  167.5719 F       1  UNL1       -0.2042
     44 C         138.1334  140.0304  165.4743 C.ar    1  UNL1        0.0293
     45 C         138.7015  140.1574  164.0918 C.ar    1  UNL1       -0.0017
@<TRIPOS>BOND
     1    19    20    1
     2    20    21    1
     3    20    22    1
     4    20    13    1
     5    13    14   ar
     6    14    15   ar
     7    15     9    1
     8     9    10    2
     9     9    11   am
    10    11     8    1
    11     1     8    1
    12     1     2    1
    13     2     3    1
    14     3     4    1
    15     4     5   am
    16     5     6    2
    17     5    27    1
    18    27    28    1
    19    28    29    1
    20    29    30    1
    21    30    31    1
    22    31    32    1
    23    32    33   ar
    24    33    34   ar
    25    34    35   ar
    26    35    36    1
    27    35    37   ar
    28    37    38   ar
    29    31    39    1
    30    39    40   ar
    31    40    41   ar
    32    41    42   ar
    33    42    43    1
    34    42    44   ar
    35    44    45   ar
    36     4     7    1
    37    15    16   ar
    38    16    17   ar
    39    17    23    1
    40    23    24    1
    41    23    25    1
    42    23    26    1
    43    17    18   ar
    44    18    13   ar
    45     7     1    1
    46    38    32   ar
    47    45    39   ar
    48    11    12    1
@<TRIPOS>MOLECULE
*****
 45 48 0 0 0
SMALL
GASTEIGER

@<TRIPOS>ATOM
      1 C         140.2598  145.0622  160.8490 C.3     1  UNL1        0.0412
      2 C         140.8052  145.7579  159.6372 C.3     1  UNL1        0.0249
      3 C         140.4131  144.9603  158.4289 C.3     1  UNL1        0.0935
      4 N         139.6253  143.7716  158.8939 N.am    1  UNL1       -0.2795
      5 C         139.0358  142.7068  158.0171 C.2     1  UNL1        0.2256
      6 O         139.2134  142.7770  156.5293 O.2     1  UNL1       -0.2749
      7 C         139.5305  143.8345  160.3895 C.3     1  UNL1        0.0951
      8 C         140.4161  145.5146  162.2705 C.3     1  UNL1        0.0914
      9 C         140.0294  143.8691  164.2436 C.2     1  UNL1        0.2458
     10 O         138.5514  144.1088  164.1539 O.2     1  UNL1       -0.2701
     11 N         140.9617  144.5720  163.3019 N.am    1  UNL1       -0.3008
     12 H         141.9318  144.4147  163.3608 H       1  UNL1        0.1497
     13 C         140.6104  142.0372  167.7158 C.ar    1  UNL1       -0.0230
     14 C         140.0647  142.9798  166.6845 C.ar    1  UNL1        0.0002
     15 C         140.5751  142.9265  165.2750 C.ar    1  UNL1        0.0527
     16 C         141.6312  141.9307  164.8969 C.ar    1  UNL1        0.0002
     17 C         142.1769  140.9882  165.9283 C.ar    1  UNL1       -0.0230
     18 C         141.6664  141.0414  167.3377 C.ar    1  UNL1       -0.0086
     19 C         140.5240  143.5259  169.2247 C.3     1  UNL1        0.0044
     20 C         140.0999  142.0905  169.1253 C.3     1  UNL1        0.0189
     21 C         139.6759  140.6551  169.0260 C.3     1  UNL1        0.0044
     22 C         139.5895  142.1437  170.5348 C.3     1  UNL1        0.0044
     23 C         143.2330  139.9923  165.5502 C.3     1  UNL1        0.0189
     24 C         142.3886  138.8850  166.1078 C.3     1  UNL1        0.0044
     25 C         144.0774  141.0995  164.9926 C.3     1  UNL1        0.0044
     26 C         144.2891  138.9965  165.1721 C.3     1  UNL1        0.0044
     27 C         138.2686  141.5719  158.6281 C.3     1  UNL1        0.0853
     28 C         138.9350  140.2451  158.8414 C.3     1  UNL1        0.0096
     29 C         138.4442  139.3239  159.9188 C.3     1  UNL1        0.0012
     30 C         139.4231  138.5143  160.7167 C.3     1  UNL1        0.0087
     31 C         140.1039  139.1214  161.9074 C.3     1  UNL1        0.0446
     32 C         139.4831  139.0025  163.2677 C.ar    1  UNL1       -0.0183
     33 C         138.8143  140.1906  163.8933 C.ar    1  UNL1       -0.0017
     34 C         138.1935  140.0718  165.2536 C.ar    1  UNL1        0.0293
     35 C         138.2413  138.7649  165.9882 C.ar    1  UNL1        0.1401
     36 F         137.6204  138.6460  167.3486 F       1  UNL1       -0.2042
     37 C         138.9101  137.5769  165.3626 C.ar    1  UNL1        0.0293
     38 C         139.5310  137.6957  164.0024 C.ar    1  UNL1       -0.0017
     39 C         141.4056  139.8474  161.7379 C.ar    1  UNL1       -0.0183
     40 C         142.6996  139.0911  161.7978 C.ar    1  UNL1       -0.0017
     41 C         144.0011  139.8171  161.6282 C.ar    1  UNL1        0.0293
     42 C         144.0088  141.2994  161.3987 C.ar    1  UNL1        0.1401
     43 F         145.3104  142.0254  161.2291 F       1  UNL1       -0.2042
     44 C         142.7148  142.0558  161.3388 C.ar    1  UNL1        0.0293
     45 C         141.4131  141.3298  161.5084 C.ar    1  UNL1       -0.0017
@<TRIPOS>BOND
     1    19    20    1
     2    20    21    1
     3    20    22    1
     4    20    13    1
     5    13    14   ar
     6    14    15   ar
     7    15     9    1
     8     9    10    2
     9     9    11   am
    10    11     8    1
    11     1     8    1
    12     1     2    1
    13     2     3    1
    14     3     4    1
    15     4     5   am
    16     5     6    2
    17     5    27    1
    18    27    28    1
    19    28    29    1
    20    29    30    1
    21    30    31    1
    22    31    32    1
    23    32    33   ar
    24    33    34   ar
    25    34    35   ar
    26    35    36    1
    27    35    37   ar
    28    37    38   ar
    29    31    39    1
    30    39    40   ar
    31    40    41   ar
    32    41    42   ar
    33    42    43    1
    34    42    44   ar
    35    44    45   ar
    36     4     7    1
    37    15    16   ar
    38    16    17   ar
    39    17    23    1
    40    23    24    1
    41    23    25    1
    42    23    26    1
    43    17    18   ar
    44    18    13   ar
    45     7     1    1
    46    38    32   ar
    47    45    39   ar
    48    11    12    1
@<TRIPOS>MOLECULE
*****
 45 48 0 0 0
SMALL
GASTEIGER

@<TRIPOS>ATOM
      1 C         140.9664  145.0328  161.4958 C.3     1  UNL1        0.0412
      2 C         140.2664  145.8100  160.4207 C.3     1  UNL1        0.0249
      3 C         140.7792  145.3321  159.0946 C.3     1  UNL1        0.0935
      4 N         141.7961  144.2594  159.3501 N.am    1  UNL1       -0.2795
      5 C         142.5627  143.5043  158.3051 C.2     1  UNL1        0.2256
      6 O         142.3398  143.7999  156.8515 O.2     1  UNL1       -0.2749
      7 C         141.9118  144.0745  160.8341 C.3     1  UNL1        0.0951
      8 C         140.7577  145.1868  162.9732 C.3     1  UNL1        0.0914
      9 C         139.9091  143.8649  165.0426 C.2     1  UNL1        0.2458
     10 O         138.9005  144.9409  165.3164 O.2     1  UNL1       -0.2701
     11 N         140.8376  143.9879  163.8710 N.am    1  UNL1       -0.3008
     12 H         141.4996  143.2816  163.6913 H       1  UNL1        0.1497
     13 C         139.6425  140.1209  166.3316 C.ar    1  UNL1       -0.0230
     14 C         139.5625  141.3199  165.4339 C.ar    1  UNL1        0.0002
     15 C         139.9891  142.6659  165.9404 C.ar    1  UNL1        0.0527
     16 C         140.4956  142.8128  167.3446 C.ar    1  UNL1        0.0002
     17 C         140.5756  141.6138  168.2423 C.ar    1  UNL1       -0.0230
     18 C         140.1490  140.2678  167.7358 C.ar    1  UNL1       -0.0086
     19 C         140.5604  138.5893  165.1864 C.3     1  UNL1        0.0044
     20 C         139.2159  138.7750  165.8252 C.3     1  UNL1        0.0189
     21 C         137.8715  138.9607  166.4639 C.3     1  UNL1        0.0044
     22 C         138.7894  137.4291  165.3187 C.3     1  UNL1        0.0044
     23 C         141.0822  141.7607  169.6466 C.3     1  UNL1        0.0189
     24 C         142.3278  142.4166  169.1287 C.3     1  UNL1        0.0044
     25 C         139.8366  141.1048  170.1645 C.3     1  UNL1        0.0044
     26 C         141.5887  141.9075  171.0508 C.3     1  UNL1        0.0044
     27 C         143.5522  142.4537  158.7136 C.3     1  UNL1        0.0853
     28 C         143.0768  141.0821  159.0914 C.3     1  UNL1        0.0096
     29 C         144.0545  140.0613  159.5934 C.3     1  UNL1        0.0012
     30 C         143.8828  139.4666  160.9598 C.3     1  UNL1        0.0087
     31 C         142.9188  140.0826  161.9301 C.3     1  UNL1        0.0446
     32 C         141.4640  139.7219  161.8731 C.ar    1  UNL1       -0.0183
     33 C         141.0527  138.2903  161.6961 C.ar    1  UNL1       -0.0017
     34 C         139.5978  137.9295  161.6391 C.ar    1  UNL1        0.0293
     35 C         138.5543  139.0003  161.7591 C.ar    1  UNL1        0.1401
     36 F         137.0994  138.6396  161.7021 F       1  UNL1       -0.2042
     37 C         138.9657  140.4319  161.9361 C.ar    1  UNL1        0.0293
     38 C         140.4205  140.7927  161.9931 C.ar    1  UNL1       -0.0017
     39 C         143.4098  141.0593  162.9573 C.ar    1  UNL1       -0.0183
     40 C         143.1262  140.8244  164.4114 C.ar    1  UNL1       -0.0017
     41 C         143.6172  141.8011  165.4385 C.ar    1  UNL1        0.0293
     42 C         144.3918  143.0126  165.0115 C.ar    1  UNL1        0.1401
     43 F         144.8828  143.9893  166.0387 F       1  UNL1       -0.2042
     44 C         144.6754  143.2475  163.5575 C.ar    1  UNL1        0.0293
     45 C         144.1844  142.2708  162.5302 C.ar    1  UNL1       -0.0017
@<TRIPOS>BOND
     1    19    20    1
     2    20    21    1
     3    20    22    1
     4    20    13    1
     5    13    14   ar
     6    14    15   ar
     7    15     9    1
     8     9    10    2
     9     9    11   am
    10    11     8    1
    11     1     8    1
    12     1     2    1
    13     2     3    1
    14     3     4    1
    15     4     5   am
    16     5     6    2
    17     5    27    1
    18    27    28    1
    19    28    29    1
    20    29    30    1
    21    30    31    1
    22    31    32    1
    23    32    33   ar
    24    33    34   ar
    25    34    35   ar
    26    35    36    1
    27    35    37   ar
    28    37    38   ar
    29    31    39    1
    30    39    40   ar
    31    40    41   ar
    32    41    42   ar
    33    42    43    1
    34    42    44   ar
    35    44    45   ar
    36     4     7    1
    37    15    16   ar
    38    16    17   ar
    39    17    23    1
    40    23    24    1
    41    23    25    1
    42    23    26    1
    43    17    18   ar
    44    18    13   ar
    45     7     1    1
    46    38    32   ar
    47    45    39   ar
    48    11    12    1
@<TRIPOS>MOLECULE
*****
 45 48 0 0 0
SMALL
GASTEIGER

@<TRIPOS>ATOM
      1 C         141.0181  145.0034  161.5446 C.3     1  UNL1        0.0412
      2 C         140.3038  145.7791  160.4779 C.3     1  UNL1        0.0249
      3 C         140.7682  145.2707  159.1453 C.3     1  UNL1        0.0935
      4 N         141.7697  144.1807  159.3884 N.am    1  UNL1       -0.2795
      5 C         142.4902  143.3941  158.3339 C.2     1  UNL1        0.2256
      6 O         142.2317  143.6726  156.8828 O.2     1  UNL1       -0.2749
      7 C         141.9241  144.0155  160.8713 C.3     1  UNL1        0.0951
      8 C         140.8551  145.1838  163.0248 C.3     1  UNL1        0.0914
      9 C         139.8955  143.8128  165.0121 C.2     1  UNL1        0.2458
     10 O         138.7942  144.8182  165.1740 O.2     1  UNL1       -0.2701
     11 N         140.9259  143.9956  163.9375 N.am    1  UNL1       -0.3008
     12 H         141.6487  143.3356  163.8312 H       1  UNL1        0.1497
     13 C         140.5360  141.5987  168.2428 C.ar    1  UNL1       -0.0230
     14 C         140.4652  142.7869  167.3301 C.ar    1  UNL1        0.0002
     15 C         139.9664  142.6245  165.9248 C.ar    1  UNL1        0.0527
     16 C         139.5384  141.2739  165.4322 C.ar    1  UNL1        0.0002
     17 C         139.6093  140.0857  166.3449 C.ar    1  UNL1       -0.0230
     18 C         140.1081  140.2481  167.7502 C.ar    1  UNL1       -0.0086
     19 C         142.2740  142.4298  169.1309 C.3     1  UNL1        0.0044
     20 C         141.0349  141.7610  169.6480 C.3     1  UNL1        0.0189
     21 C         139.7958  141.0923  170.1652 C.3     1  UNL1        0.0044
     22 C         141.5337  141.9234  171.0533 C.3     1  UNL1        0.0044
     23 C         139.1813  138.7350  165.8523 C.3     1  UNL1        0.0189
     24 C         137.8666  138.8947  166.5564 C.3     1  UNL1        0.0044
     25 C         140.4961  138.5752  165.1482 C.3     1  UNL1        0.0044
     26 C         138.7534  137.3843  165.3598 C.3     1  UNL1        0.0044
     27 C         143.4690  142.3290  158.7304 C.3     1  UNL1        0.0853
     28 C         142.9834  140.9477  159.0561 C.3     1  UNL1        0.0096
     29 C         143.9511  139.9054  159.5326 C.3     1  UNL1        0.0012
     30 C         143.8910  139.4183  160.9501 C.3     1  UNL1        0.0087
     31 C         142.9329  140.0458  161.9188 C.3     1  UNL1        0.0446
     32 C         141.4755  139.6953  161.8657 C.ar    1  UNL1       -0.0183
     33 C         141.0537  138.2684  161.6761 C.ar    1  UNL1       -0.0017
     34 C         139.5963  137.9178  161.6230 C.ar    1  UNL1        0.0293
     35 C         138.5605  138.9941  161.7595 C.ar    1  UNL1        0.1401
     36 F         137.1030  138.6436  161.7064 F       1  UNL1       -0.2042
     37 C         138.9823  140.4211  161.9492 C.ar    1  UNL1        0.0293
     38 C         140.4397  140.7717  162.0023 C.ar    1  UNL1       -0.0017
     39 C         143.4325  141.0239  162.9406 C.ar    1  UNL1       -0.0183
     40 C         143.0993  140.8300  164.3902 C.ar    1  UNL1       -0.0017
     41 C         143.5988  141.8081  165.4119 C.ar    1  UNL1        0.0293
     42 C         144.4315  142.9801  164.9839 C.ar    1  UNL1        0.1401
     43 F         144.9310  143.9582  166.0056 F       1  UNL1       -0.2042
     44 C         144.7647  143.1740  163.5343 C.ar    1  UNL1        0.0293
     45 C         144.2651  142.1959  162.5125 C.ar    1  UNL1       -0.0017
@<TRIPOS>BOND
     1    19    20    1
     2    20    21    1
     3    20    22    1
     4    20    13    1
     5    13    14   ar
     6    14    15   ar
     7    15     9    1
     8     9    10    2
     9     9    11   am
    10    11     8    1
    11     1     8    1
    12     1     2    1
    13     2     3    1
    14     3     4    1
    15     4     5   am
    16     5     6    2
    17     5    27    1
    18    27    28    1
    19    28    29    1
    20    29    30    1
    21    30    31    1
    22    31    32    1
    23    32    33   ar
    24    33    34   ar
    25    34    35   ar
    26    35    36    1
    27    35    37   ar
    28    37    38   ar
    29    31    39    1
    30    39    40   ar
    31    40    41   ar
    32    41    42   ar
    33    42    43    1
    34    42    44   ar
    35    44    45   ar
    36     4     7    1
    37    15    16   ar
    38    16    17   ar
    39    17    23    1
    40    23    24    1
    41    23    25    1
    42    23    26    1
    43    17    18   ar
    44    18    13   ar
    45     7     1    1
    46    38    32   ar
    47    45    39   ar
    48    11    12    1
@<TRIPOS>MOLECULE
*****
 45 48 0 0 0
SMALL
GASTEIGER

@<TRIPOS>ATOM
      1 C         143.5406  138.6893  161.4077 C.3     1  UNL1        0.0412
      2 C         143.0173  137.6038  160.5144 C.3     1  UNL1        0.0249
      3 C         143.0840  138.0959  159.0990 C.3     1  UNL1        0.0935
      4 N         143.6485  139.4855  159.1175 N.am    1  UNL1       -0.2795
      5 C         143.8886  140.3556  157.9195 C.2     1  UNL1        0.2256
      6 O         143.5556  139.8506  156.5470 O.2     1  UNL1       -0.2749
      7 C         143.9306  139.8522  160.5444 C.3     1  UNL1        0.0951
      8 C         143.6538  138.6233  162.9020 C.3     1  UNL1        0.0914
      9 C         143.1973  140.6435  164.4706 C.2     1  UNL1        0.2458
     10 O         144.6239  141.0821  164.3210 O.2     1  UNL1       -0.2701
     11 N         142.7123  139.4141  163.7611 N.am    1  UNL1       -0.3008
     12 H         141.7759  139.1262  163.8594 H       1  UNL1        0.1497
     13 C         141.6409  142.4683  167.6325 C.ar    1  UNL1       -0.0230
     14 C         142.5825  141.6776  166.7734 C.ar    1  UNL1        0.0002
     15 C         142.2557  141.4342  165.3298 C.ar    1  UNL1        0.0527
     16 C         140.9873  141.9816  164.7453 C.ar    1  UNL1        0.0002
     17 C         140.0457  142.7723  165.6045 C.ar    1  UNL1       -0.0230
     18 C         140.3725  143.0157  167.0481 C.ar    1  UNL1       -0.0086
     19 C         143.3496  142.1721  168.8543 C.3     1  UNL1        0.0044
     20 C         141.9677  142.7117  169.0761 C.3     1  UNL1        0.0189
     21 C         140.5859  143.2514  169.2980 C.3     1  UNL1        0.0044
     22 C         142.2945  142.9551  170.5197 C.3     1  UNL1        0.0044
     23 C         138.7773  143.3197  165.0201 C.3     1  UNL1        0.0189
     24 C         138.5065  141.9962  164.3681 C.3     1  UNL1        0.0044
     25 C         139.0480  144.6431  165.6721 C.3     1  UNL1        0.0044
     26 C         137.5089  143.8671  164.4357 C.3     1  UNL1        0.0044
     27 C         144.4618  141.7307  158.0941 C.3     1  UNL1        0.0853
     28 C         143.5557  142.9260  158.0982 C.3     1  UNL1        0.0096
     29 C         142.0679  142.7392  158.1377 C.3     1  UNL1        0.0012
     30 C         141.2360  143.5439  159.0920 C.3     1  UNL1        0.0087
     31 C         141.0703  143.0876  160.5113 C.3     1  UNL1        0.0446
     32 C         140.1240  141.9694  160.8338 C.ar    1  UNL1       -0.0183
     33 C         140.6506  140.6752  161.3795 C.ar    1  UNL1       -0.0017
     34 C         139.7044  139.5569  161.7020 C.ar    1  UNL1        0.0293
     35 C         138.2315  139.7328  161.4790 C.ar    1  UNL1        0.1401
     36 F         137.2852  138.6145  161.8016 F       1  UNL1       -0.2042
     37 C         137.7049  141.0271  160.9334 C.ar    1  UNL1        0.0293
     38 C         138.6512  142.1453  160.6108 C.ar    1  UNL1       -0.0017
     39 C         141.8508  143.7496  161.6080 C.ar    1  UNL1       -0.0183
     40 C         141.1739  144.7200  162.5300 C.ar    1  UNL1       -0.0017
     41 C         141.9545  145.3819  163.6266 C.ar    1  UNL1        0.0293
     42 C         143.4120  145.0734  163.8012 C.ar    1  UNL1        0.1401
     43 F         144.1925  145.7353  164.8978 F       1  UNL1       -0.2042
     44 C         144.0889  144.1030  162.8792 C.ar    1  UNL1        0.0293
     45 C         143.3084  143.4410  161.7825 C.ar    1  UNL1       -0.0017
@<TRIPOS>BOND
     1    19    20    1
     2    20    21    1
     3    20    22    1
     4    20    13    1
     5    13    14   ar
     6    14    15   ar
     7    15     9    1
     8     9    10    2
     9     9    11   am
    10    11     8    1
    11     1     8    1
    12     1     2    1
    13     2     3    1
    14     3     4    1
    15     4     5   am
    16     5     6    2
    17     5    27    1
    18    27    28    1
    19    28    29    1
    20    29    30    1
    21    30    31    1
    22    31    32    1
    23    32    33   ar
    24    33    34   ar
    25    34    35   ar
    26    35    36    1
    27    35    37   ar
    28    37    38   ar
    29    31    39    1
    30    39    40   ar
    31    40    41   ar
    32    41    42   ar
    33    42    43    1
    34    42    44   ar
    35    44    45   ar
    36     4     7    1
    37    15    16   ar
    38    16    17   ar
    39    17    23    1
    40    23    24    1
    41    23    25    1
    42    23    26    1
    43    17    18   ar
    44    18    13   ar
    45     7     1    1
    46    38    32   ar
    47    45    39   ar
    48    11    12    1
@<TRIPOS>MOLECULE
*****
 45 48 0 0 0
SMALL
GASTEIGER

@<TRIPOS>ATOM
      1 C         138.3078  139.2296  160.4761 C.3     1  UNL1        0.0412
      2 C         137.7211  140.2595  159.5567 C.3     1  UNL1        0.0249
      3 C         138.5039  140.2385  158.2773 C.3     1  UNL1        0.0935
      4 N         139.5744  139.1957  158.4060 N.am    1  UNL1       -0.2795
      5 C         140.5881  138.8389  157.3595 C.2     1  UNL1        0.2256
      6 O         140.5868  139.5525  156.0401 O.2     1  UNL1       -0.2749
      7 C         139.4532  138.5722  159.7648 C.3     1  UNL1        0.0951
      8 C         137.8326  138.9129  161.8631 C.3     1  UNL1        0.0914
      9 C         138.8541  140.6957  163.4531 C.2     1  UNL1        0.2458
     10 O         138.1687  141.7808  162.6767 O.2     1  UNL1       -0.2701
     11 N         138.6860  139.2617  163.0463 N.am    1  UNL1       -0.3008
     12 H         139.1358  138.5495  163.5558 H       1  UNL1        0.1497
     13 C         141.8711  142.0955  165.6183 C.ar    1  UNL1       -0.0230
     14 C         141.0177  141.7466  164.4351 C.ar    1  UNL1        0.0002
     15 C         139.7075  141.0445  164.6363 C.ar    1  UNL1        0.0527
     16 C         139.2508  140.6911  166.0207 C.ar    1  UNL1        0.0002
     17 C         140.1043  141.0399  167.2039 C.ar    1  UNL1       -0.0230
     18 C         141.4144  141.7421  167.0026 C.ar    1  UNL1       -0.0086
     19 C         142.8435  143.0136  163.9716 C.3     1  UNL1        0.0044
     20 C         143.1813  142.7976  165.4171 C.3     1  UNL1        0.0189
     21 C         143.5190  142.5817  166.8625 C.3     1  UNL1        0.0044
     22 C         144.4914  143.4998  165.2158 C.3     1  UNL1        0.0044
     23 C         139.6476  140.6865  168.5883 C.3     1  UNL1        0.0189
     24 C         138.8239  139.5641  168.0302 C.3     1  UNL1        0.0044
     25 C         140.4714  141.8090  169.1465 C.3     1  UNL1        0.0044
     26 C         139.1910  140.3332  169.9727 C.3     1  UNL1        0.0044
     27 C         141.6030  137.7688  157.6324 C.3     1  UNL1        0.0853
     28 C         142.8165  138.0789  158.4576 C.3     1  UNL1        0.0096
     29 C         142.9242  137.5553  159.8592 C.3     1  UNL1        0.0012
     30 C         143.8818  138.1885  160.8248 C.3     1  UNL1        0.0087
     31 C         143.4162  139.2919  161.7281 C.3     1  UNL1        0.0446
     32 C         143.0270  140.6202  161.1502 C.ar    1  UNL1       -0.0183
     33 C         144.0870  141.5985  160.7384 C.ar    1  UNL1       -0.0017
     34 C         143.6978  142.9269  160.1605 C.ar    1  UNL1        0.0293
     35 C         142.2488  143.2770  159.9945 C.ar    1  UNL1        0.1401
     36 F         141.8596  144.6055  159.4165 F       1  UNL1       -0.2042
     37 C         141.1888  142.2988  160.4063 C.ar    1  UNL1        0.0293
     38 C         141.5779  140.9704  160.9842 C.ar    1  UNL1       -0.0017
     39 C         143.3398  139.0668  163.2092 C.ar    1  UNL1       -0.0183
     40 C         144.4763  139.4904  164.0918 C.ar    1  UNL1       -0.0017
     41 C         144.3999  139.2653  165.5728 C.ar    1  UNL1        0.0293
     42 C         143.1870  138.6167  166.1712 C.ar    1  UNL1        0.1401
     43 F         143.1105  138.3916  167.6523 F       1  UNL1       -0.2042
     44 C         142.0504  138.1931  165.2887 C.ar    1  UNL1        0.0293
     45 C         142.1268  138.4182  163.8076 C.ar    1  UNL1       -0.0017
@<TRIPOS>BOND
     1    19    20    1
     2    20    21    1
     3    20    22    1
     4    20    13    1
     5    13    14   ar
     6    14    15   ar
     7    15     9    1
     8     9    10    2
     9     9    11   am
    10    11     8    1
    11     1     8    1
    12     1     2    1
    13     2     3    1
    14     3     4    1
    15     4     5   am
    16     5     6    2
    17     5    27    1
    18    27    28    1
    19    28    29    1
    20    29    30    1
    21    30    31    1
    22    31    32    1
    23    32    33   ar
    24    33    34   ar
    25    34    35   ar
    26    35    36    1
    27    35    37   ar
    28    37    38   ar
    29    31    39    1
    30    39    40   ar
    31    40    41   ar
    32    41    42   ar
    33    42    43    1
    34    42    44   ar
    35    44    45   ar
    36     4     7    1
    37    15    16   ar
    38    16    17   ar
    39    17    23    1
    40    23    24    1
    41    23    25    1
    42    23    26    1
    43    17    18   ar
    44    18    13   ar
    45     7     1    1
    46    38    32   ar
    47    45    39   ar
    48    11    12    1
@<TRIPOS>MOLECULE
*****
 45 48 0 0 0
SMALL
GASTEIGER

@<TRIPOS>ATOM
      1 C         140.8117  145.0639  161.6134 C.3     1  UNL1        0.0412
      2 C         140.0723  145.8311  160.5576 C.3     1  UNL1        0.0249
      3 C         140.6125  145.4181  159.2206 C.3     1  UNL1        0.0935
      4 N         141.6857  144.3955  159.4501 N.am    1  UNL1       -0.2795
      5 C         142.4939  143.7119  158.3873 C.2     1  UNL1        0.2256
      6 O         142.2577  144.0346  156.9416 O.2     1  UNL1       -0.2749
      7 C         141.8088  144.1767  160.9289 C.3     1  UNL1        0.0951
      8 C         140.5924  145.1660  163.0938 C.3     1  UNL1        0.0914
      9 C         139.8514  143.8205  165.1892 C.2     1  UNL1        0.2458
     10 O         138.9100  144.9258  165.5660 O.2     1  UNL1       -0.2701
     11 N         140.6926  143.9406  163.9531 N.am    1  UNL1       -0.3008
     12 H         141.3105  143.2152  163.7058 H       1  UNL1        0.1497
     13 C         140.5796  141.4766  168.3078 C.ar    1  UNL1       -0.0230
     14 C         140.4794  142.7020  167.4485 C.ar    1  UNL1        0.0002
     15 C         139.9517  142.5951  166.0485 C.ar    1  UNL1        0.0527
     16 C         139.5243  141.2629  165.5077 C.ar    1  UNL1        0.0002
     17 C         139.6246  140.0375  166.3670 C.ar    1  UNL1       -0.0230
     18 C         140.1522  140.1444  167.7671 C.ar    1  UNL1       -0.0086
     19 C         140.8829  140.1135  169.9047 C.3     1  UNL1        0.0044
     20 C         141.1073  141.5835  169.7079 C.3     1  UNL1        0.0189
     21 C         141.3318  143.0535  169.5111 C.3     1  UNL1        0.0044
     22 C         141.6350  141.6903  171.1079 C.3     1  UNL1        0.0044
     23 C         139.1972  138.7052  165.8263 C.3     1  UNL1        0.0189
     24 C         140.5447  138.5307  165.1909 C.3     1  UNL1        0.0044
     25 C         137.8496  138.8797  166.4616 C.3     1  UNL1        0.0044
     26 C         138.7697  137.3730  165.2856 C.3     1  UNL1        0.0044
     27 C         143.5382  142.7057  158.7703 C.3     1  UNL1        0.0853
     28 C         143.1397  141.2950  159.0883 C.3     1  UNL1        0.0096
     29 C         144.1539  140.3340  159.6340 C.3     1  UNL1        0.0012
     30 C         143.8675  139.5790  160.8982 C.3     1  UNL1        0.0087
     31 C         142.9115  140.1420  161.9077 C.3     1  UNL1        0.0446
     32 C         143.4038  141.0933  162.9577 C.ar    1  UNL1       -0.0183
     33 C         144.2455  142.2717  162.5668 C.ar    1  UNL1       -0.0017
     34 C         144.7378  143.2231  163.6167 C.ar    1  UNL1        0.0293
     35 C         144.3885  142.9960  165.0577 C.ar    1  UNL1        0.1401
     36 F         144.8808  143.9474  166.1078 F       1  UNL1       -0.2042
     37 C         143.5468  141.8176  165.4487 C.ar    1  UNL1        0.0293
     38 C         143.0544  140.8662  164.3987 C.ar    1  UNL1       -0.0017
     39 C         141.4632  139.7535  161.8672 C.ar    1  UNL1       -0.0183
     40 C         141.0771  138.3152  161.6881 C.ar    1  UNL1       -0.0017
     41 C         139.6289  137.9268  161.6475 C.ar    1  UNL1        0.0293
     42 C         138.5666  138.9768  161.7860 C.ar    1  UNL1        0.1401
     43 F         137.1184  138.5884  161.7455 F       1  UNL1       -0.2042
     44 C         138.9526  140.4152  161.9651 C.ar    1  UNL1        0.0293
     45 C         140.4010  140.8036  162.0057 C.ar    1  UNL1       -0.0017
@<TRIPOS>BOND
     1    19    20    1
     2    20    21    1
     3    20    22    1
     4    20    13    1
     5    13    14   ar
     6    14    15   ar
     7    15     9    1
     8     9    10    2
     9     9    11   am
    10    11     8    1
    11     1     8    1
    12     1     2    1
    13     2     3    1
    14     3     4    1
    15     4     5   am
    16     5     6    2
    17     5    27    1
    18    27    28    1
    19    28    29    1
    20    29    30    1
    21    30    31    1
    22    31    32    1
    23    32    33   ar
    24    33    34   ar
    25    34    35   ar
    26    35    36    1
    27    35    37   ar
    28    37    38   ar
    29    31    39    1
    30    39    40   ar
    31    40    41   ar
    32    41    42   ar
    33    42    43    1
    34    42    44   ar
    35    44    45   ar
    36     4     7    1
    37    15    16   ar
    38    16    17   ar
    39    17    23    1
    40    23    24    1
    41    23    25    1
    42    23    26    1
    43    17    18   ar
    44    18    13   ar
    45     7     1    1
    46    38    32   ar
    47    45    39   ar
    48    11    12    1
