@<TRIPOS>MOLECULE
*****
 36 39 0 0 0
SMALL
GASTEIGER

@<TRIPOS>ATOM
      1 N         138.7839  138.4098  165.3652 N.ar    1  UNL1       -0.2944
      2 C         137.9094  138.3343  166.5816 C.ar    1  UNL1        0.1798
      3 N         138.5195  139.1981  167.6454 N.ar    1  UNL1       -0.2194
      4 C         139.7710  139.8074  167.0866 C.ar    1  UNL1        0.1485
      5 C         140.7830  140.7429  167.6788 C.ar    1  UNL1        0.1543
      6 N         141.9584  141.1912  166.8618 N.ar    1  UNL1       -0.2102
      7 C         142.1219  140.7040  165.4527 C.ar    1  UNL1        0.1653
      8 N         141.1099  139.7684  164.8604 N.ar    1  UNL1       -0.2078
      9 C         139.9345  139.3202  165.6773 C.ar    1  UNL1        0.1672
     10 N         140.6196  141.2301  169.0880 N.pl3   1  UNL1       -0.2868
     11 C         140.0559  142.5956  169.3489 C.3     1  UNL1        0.1243
     12 C         139.8924  143.0828  170.7580 C.3     1  UNL1        0.1636
     13 O         140.2926  142.2047  171.9065 O.3     1  UNL1       -0.3501
     14 C         140.8563  140.8393  171.6456 C.3     1  UNL1        0.1636
     15 C         141.0198  140.3520  170.2364 C.3     1  UNL1        0.1243
     16 C         143.2973  141.1523  164.6357 C.ar    1  UNL1        0.0357
     17 C         144.5534  140.3326  164.6160 C.ar    1  UNL1        0.0030
     18 C         145.7288  140.7809  163.7990 C.ar    1  UNL1       -0.0001
     19 C         145.6481  142.0489  163.0017 C.ar    1  UNL1       -0.0019
     20 C         144.3921  142.8686  163.0214 C.ar    1  UNL1        0.0071
     21 C         143.2167  142.4203  163.8384 C.ar    1  UNL1        0.0012
     22 C         144.3114  144.1366  162.2241 C.3     1  UNL1        0.1636
     23 O         143.7720  145.3861  162.8550 O.3     1  UNL1       -0.3772
     24 H         142.8322  145.2642  163.0617 H       1  UNL1        0.2109
     25 C         138.5492  137.6995  164.0651 C.3     1  UNL1        0.1090
     26 C         138.7921  138.4111  162.7672 C.3     1  UNL1        0.0246
     27 C         137.8727  139.5138  162.3328 C.3     1  UNL1        0.0020
     28 C         138.1203  140.9207  162.7904 C.3     1  UNL1        0.0006
     29 C         137.9773  142.0596  161.8247 C.3     1  UNL1        0.0096
     30 C         139.1761  142.8789  161.4485 C.3     1  UNL1        0.0871
     31 O         138.1790  145.0662  162.4343 O.2     1  UNL1       -0.2730
     32 C         139.3699  144.2419  162.0442 C.2     1  UNL1        0.2443
     33 N         140.7548  144.7805  162.2498 N.am    1  UNL1       -0.1970
     34 O         140.9486  146.1435  162.8454 O.3     1  UNL1       -0.2952
     35 H         141.5364  144.2395  161.9937 H       1  UNL1        0.1822
     36 H         140.0837  146.5378  163.0387 H       1  UNL1        0.2414
@<TRIPOS>BOND
     1    31    32    2
     2    32    30    1
     3    30    29    1
     4    29    28    1
     5    28    27    1
     6    27    26    1
     7    26    25    1
     8    25     1    1
     9     1     2   ar
    10     2     3   ar
    11     3     4   ar
    12     4     5   ar
    13     5    10    1
    14    10    11    1
    15    11    12    1
    16    12    13    1
    17    13    14    1
    18    14    15    1
    19     5     6   ar
    20     6     7   ar
    21     7    16    1
    22    16    17   ar
    23    17    18   ar
    24    18    19   ar
    25    19    20   ar
    26    20    22    1
    27    22    23    1
    28    20    21   ar
    29     7     8   ar
    30     8     9   ar
    31    32    33   am
    32    33    34    1
    33     9     1   ar
    34     9     4   ar
    35    15    10    1
    36    21    16   ar
    37    23    24    1
    38    33    35    1
    39    34    36    1
@<TRIPOS>MOLECULE
*****
 36 39 0 0 0
SMALL
GASTEIGER

@<TRIPOS>ATOM
      1 N         141.8541  139.2438  162.6523 N.ar    1  UNL1       -0.2944
      2 C         141.6329  139.5709  161.2052 C.ar    1  UNL1        0.1798
      3 N         141.2843  141.0265  161.1069 N.ar    1  UNL1       -0.2194
      4 C         141.2900  141.5991  162.4933 C.ar    1  UNL1        0.1485
      5 C         141.0201  142.9814  163.0094 C.ar    1  UNL1        0.1543
      6 N         141.1023  143.2619  164.4807 N.ar    1  UNL1       -0.2102
      7 C         141.4544  142.1603  165.4357 C.ar    1  UNL1        0.1653
      8 N         141.7244  140.7779  164.9196 N.ar    1  UNL1       -0.2078
      9 C         141.6422  140.4974  163.4484 C.ar    1  UNL1        0.1672
     10 N         140.6680  144.0831  162.0544 N.pl3   1  UNL1       -0.2868
     11 C         141.2347  144.0814  160.6654 C.3     1  UNL1        0.1243
     12 C         140.8826  145.1831  159.7104 C.3     1  UNL1        0.1636
     13 O         139.9638  146.2866  160.1441 O.3     1  UNL1       -0.3501
     14 C         139.3971  146.2883  161.5329 C.3     1  UNL1        0.1636
     15 C         139.7492  145.1866  162.4881 C.3     1  UNL1        0.1243
     16 C         141.5366  142.4409  166.9070 C.ar    1  UNL1        0.0357
     17 C         140.3385  142.9708  167.6376 C.ar    1  UNL1        0.0030
     18 C         140.4207  143.2514  169.1088 C.ar    1  UNL1       -0.0001
     19 C         141.7010  143.0020  169.8495 C.ar    1  UNL1       -0.0019
     20 C         142.8991  142.4720  169.1190 C.ar    1  UNL1        0.0071
     21 C         142.8169  142.1914  167.6477 C.ar    1  UNL1        0.0012
     22 C         144.1794  142.2225  169.8597 C.3     1  UNL1        0.1636
     23 O         144.9416  143.3727  170.4483 O.3     1  UNL1       -0.3772
     24 H         145.2745  143.9390  169.7346 H       1  UNL1        0.2109
     25 C         142.2225  137.8994  163.2061 C.3     1  UNL1        0.1090
     26 C         141.1590  137.0017  163.7658 C.3     1  UNL1        0.0246
     27 C         140.2984  137.4749  164.8996 C.3     1  UNL1        0.0020
     28 C         138.8518  137.7924  164.6613 C.3     1  UNL1        0.0006
     29 C         138.3721  139.2113  164.7429 C.3     1  UNL1        0.0096
     30 C         138.0201  139.9572  163.4901 C.3     1  UNL1        0.0871
     31 O         137.2859  142.1614  162.3271 O.2     1  UNL1       -0.2730
     32 C         137.8056  141.4411  163.5358 C.2     1  UNL1        0.2443
     33 N         138.1109  142.2047  164.7904 N.am    1  UNL1       -0.1970
     34 O         137.8964  143.6885  164.8361 O.3     1  UNL1       -0.2952
     35 H         138.4520  141.7319  165.5837 H       1  UNL1        0.1822
     36 H         137.5598  143.9932  163.9789 H       1  UNL1        0.2414
@<TRIPOS>BOND
     1    31    32    2
     2    32    30    1
     3    30    29    1
     4    29    28    1
     5    28    27    1
     6    27    26    1
     7    26    25    1
     8    25     1    1
     9     1     2   ar
    10     2     3   ar
    11     3     4   ar
    12     4     5   ar
    13     5    10    1
    14    10    11    1
    15    11    12    1
    16    12    13    1
    17    13    14    1
    18    14    15    1
    19     5     6   ar
    20     6     7   ar
    21     7    16    1
    22    16    17   ar
    23    17    18   ar
    24    18    19   ar
    25    19    20   ar
    26    20    22    1
    27    22    23    1
    28    20    21   ar
    29     7     8   ar
    30     8     9   ar
    31    32    33   am
    32    33    34    1
    33     9     1   ar
    34     9     4   ar
    35    15    10    1
    36    21    16   ar
    37    23    24    1
    38    33    35    1
    39    34    36    1
@<TRIPOS>MOLECULE
*****
 36 39 0 0 0
SMALL
GASTEIGER

@<TRIPOS>ATOM
      1 N         138.9381  139.2546  163.4317 N.ar    1  UNL1       -0.2944
      2 C         138.5519  139.6117  162.0269 C.ar    1  UNL1        0.1798
      3 N         138.9753  141.0286  161.7757 N.ar    1  UNL1       -0.2194
      4 C         139.6232  141.5472  163.0252 C.ar    1  UNL1        0.1485
      5 C         140.2311  142.8762  163.3634 C.ar    1  UNL1        0.1543
      6 N         140.8160  143.1087  164.7249 N.ar    1  UNL1       -0.2102
      7 C         140.7930  142.0124  165.7483 C.ar    1  UNL1        0.1653
      8 N         140.1850  140.6834  165.4102 N.ar    1  UNL1       -0.2078
      9 C         139.6001  140.4508  164.0487 C.ar    1  UNL1        0.1672
     10 N         140.2542  143.9726  162.3399 N.pl3   1  UNL1       -0.2868
     11 C         139.5078  145.2492  162.5915 C.3     1  UNL1        0.1243
     12 C         139.5308  146.3456  161.5682 C.3     1  UNL1        0.1636
     13 O         140.3003  146.1654  160.2931 O.3     1  UNL1       -0.3501
     14 C         141.0466  144.8889  160.0416 C.3     1  UNL1        0.1636
     15 C         141.0236  143.7924  161.0650 C.3     1  UNL1        0.1243
     16 C         141.3779  142.2449  167.1099 C.ar    1  UNL1        0.0357
     17 C         142.8628  142.1752  167.3102 C.ar    1  UNL1        0.0030
     18 C         143.4477  142.4078  168.6717 C.ar    1  UNL1       -0.0001
     19 C         142.5477  142.7100  169.8330 C.ar    1  UNL1       -0.0019
     20 C         141.0627  142.7798  169.6327 C.ar    1  UNL1        0.0071
     21 C         140.4779  142.5472  168.2712 C.ar    1  UNL1        0.0012
     22 C         140.1627  143.0820  170.7940 C.3     1  UNL1        0.1636
     23 O         140.2474  142.2560  172.0433 O.3     1  UNL1       -0.3772
     24 H         139.9646  141.3484  171.8506 H       1  UNL1        0.2109
     25 C         138.7033  137.9333  164.1018 C.3     1  UNL1        0.1090
     26 C         139.7963  137.2966  164.9080 C.3     1  UNL1        0.0246
     27 C         141.0668  136.8631  164.2387 C.3     1  UNL1        0.0020
     28 C         142.1621  137.8580  163.9927 C.3     1  UNL1        0.0006
     29 C         142.8150  138.5558  165.1489 C.3     1  UNL1        0.0096
     30 C         144.1713  139.1745  164.9827 C.3     1  UNL1        0.0871
     31 O         143.1804  140.9645  163.3816 O.2     1  UNL1       -0.2730
     32 C         144.3688  140.2985  164.0093 C.2     1  UNL1        0.2443
     33 N         145.7548  140.7564  163.6635 N.am    1  UNL1       -0.1970
     34 O         145.9523  141.8804  162.6901 O.3     1  UNL1       -0.2952
     35 H         146.5347  140.3192  164.0755 H       1  UNL1        0.1822
     36 H         145.0887  142.1959  162.3810 H       1  UNL1        0.2414
@<TRIPOS>BOND
     1    31    32    2
     2    32    30    1
     3    30    29    1
     4    29    28    1
     5    28    27    1
     6    27    26    1
     7    26    25    1
     8    25     1    1
     9     1     2   ar
    10     2     3   ar
    11     3     4   ar
    12     4     5   ar
    13     5    10    1
    14    10    11    1
    15    11    12    1
    16    12    13    1
    17    13    14    1
    18    14    15    1
    19     5     6   ar
    20     6     7   ar
    21     7    16    1
    22    16    17   ar
    23    17    18   ar
    24    18    19   ar
    25    19    20   ar
    26    20    22    1
    27    22    23    1
    28    20    21   ar
    29     7     8   ar
    30     8     9   ar
    31    32    33   am
    32    33    34    1
    33     9     1   ar
    34     9     4   ar
    35    15    10    1
    36    21    16   ar
    37    23    24    1
    38    33    35    1
    39    34    36    1
@<TRIPOS>MOLECULE
*****
 36 39 0 0 0
SMALL
GASTEIGER

@<TRIPOS>ATOM
      1 N         143.5871  139.2603  164.7847 N.ar    1  UNL1       -0.2944
      2 C         144.0468  138.5786  166.0393 C.ar    1  UNL1        0.1798
      3 N         143.2800  139.1596  167.1902 N.ar    1  UNL1       -0.2194
      4 C         142.3465  140.2004  166.6469 C.ar    1  UNL1        0.1485
      5 C         141.3480  141.0995  167.3138 C.ar    1  UNL1        0.1543
      6 N         140.5395  142.0608  166.4940 N.ar    1  UNL1       -0.2102
      7 C         140.7292  142.1231  165.0075 C.ar    1  UNL1        0.1653
      8 N         141.7277  141.2240  164.3405 N.ar    1  UNL1       -0.2078
      9 C         142.5363  140.2626  165.1602 C.ar    1  UNL1        0.1672
     10 N         141.1582  141.0373  168.8004 N.pl3   1  UNL1       -0.2868
     11 C         141.9407  141.9522  169.6954 C.3     1  UNL1        0.1243
     12 C         141.7509  141.8900  171.1819 C.3     1  UNL1        0.1636
     13 O         140.7787  140.9129  171.7738 O.3     1  UNL1       -0.3501
     14 C         139.9962  139.9981  170.8788 C.3     1  UNL1        0.1636
     15 C         140.1860  140.0603  169.3921 C.3     1  UNL1        0.1243
     16 C         139.9206  143.0845  164.1877 C.ar    1  UNL1        0.0357
     17 C         138.4654  143.2881  164.4894 C.ar    1  UNL1        0.0030
     18 C         137.6569  144.2494  163.6697 C.ar    1  UNL1       -0.0001
     19 C         138.3034  145.0072  162.5482 C.ar    1  UNL1       -0.0019
     20 C         139.7586  144.8036  162.2464 C.ar    1  UNL1        0.0071
     21 C         140.5672  143.8422  163.0662 C.ar    1  UNL1        0.0012
     22 C         140.4052  145.5614  161.1249 C.3     1  UNL1        0.1636
     23 O         141.8540  145.3384  160.8066 O.3     1  UNL1       -0.3772
     24 H         142.3990  145.6477  161.5470 H       1  UNL1        0.2109
     25 C         144.0900  138.9876  163.3981 C.3     1  UNL1        0.1090
     26 C         143.3230  138.0746  162.4882 C.3     1  UNL1        0.0246
     27 C         141.8305  138.1904  162.3938 C.3     1  UNL1        0.0020
     28 C         140.9549  137.2100  163.1166 C.3     1  UNL1        0.0006
     29 C         140.5975  137.4421  164.5548 C.3     1  UNL1        0.0096
     30 C         139.1651  137.6532  164.9469 C.3     1  UNL1        0.0871
     31 O         138.0556  139.9138  165.5863 O.2     1  UNL1       -0.2730
     32 C         138.4549  138.9115  164.5442 C.2     1  UNL1        0.2443
     33 N         138.1439  139.1676  163.0993 N.am    1  UNL1       -0.1970
     34 O         137.4336  140.4259  162.6965 O.3     1  UNL1       -0.2952
     35 H         138.4059  138.5097  162.4153 H       1  UNL1        0.1822
     36 H         137.2494  140.9598  163.4852 H       1  UNL1        0.2414
@<TRIPOS>BOND
     1    31    32    2
     2    32    30    1
     3    30    29    1
     4    29    28    1
     5    28    27    1
     6    27    26    1
     7    26    25    1
     8    25     1    1
     9     1     2   ar
    10     2     3   ar
    11     3     4   ar
    12     4     5   ar
    13     5    10    1
    14    10    11    1
    15    11    12    1
    16    12    13    1
    17    13    14    1
    18    14    15    1
    19     5     6   ar
    20     6     7   ar
    21     7    16    1
    22    16    17   ar
    23    17    18   ar
    24    18    19   ar
    25    19    20   ar
    26    20    22    1
    27    22    23    1
    28    20    21   ar
    29     7     8   ar
    30     8     9   ar
    31    32    33   am
    32    33    34    1
    33     9     1   ar
    34     9     4   ar
    35    15    10    1
    36    21    16   ar
    37    23    24    1
    38    33    35    1
    39    34    36    1
@<TRIPOS>MOLECULE
*****
 36 39 0 0 0
SMALL
GASTEIGER

@<TRIPOS>ATOM
      1 N         139.5706  139.2459  163.4782 N.ar    1  UNL1       -0.2944
      2 C         139.3293  139.5332  162.0259 C.ar    1  UNL1        0.1798
      3 N         139.5911  140.9916  161.7922 N.ar    1  UNL1       -0.2194
      4 C         139.9943  141.6056  163.1000 C.ar    1  UNL1        0.1485
      5 C         140.3714  143.0077  163.4767 C.ar    1  UNL1        0.1543
      6 N         140.7357  143.3308  164.8955 N.ar    1  UNL1       -0.2102
      7 C         140.7230  142.2520  165.9374 C.ar    1  UNL1        0.1653
      8 N         140.3460  140.8498  165.5608 N.ar    1  UNL1       -0.2078
      9 C         139.9816  140.5266  164.1420 C.ar    1  UNL1        0.1672
     10 N         140.3840  144.0866  162.4347 N.pl3   1  UNL1       -0.2868
     11 C         141.2584  143.9494  161.2236 C.3     1  UNL1        0.1243
     12 C         141.2711  145.0282  160.1816 C.3     1  UNL1        0.1636
     13 O         140.4095  146.2444  160.3507 O.3     1  UNL1       -0.3501
     14 C         139.5352  146.3816  161.5617 C.3     1  UNL1        0.1636
     15 C         139.5224  145.3027  162.6038 C.3     1  UNL1        0.1243
     16 C         141.0874  142.5752  167.3562 C.ar    1  UNL1        0.0357
     17 C         140.1080  143.2924  168.2374 C.ar    1  UNL1        0.0030
     18 C         140.4724  143.6156  169.6561 C.ar    1  UNL1       -0.0001
     19 C         141.8162  143.2216  170.1936 C.ar    1  UNL1       -0.0019
     20 C         142.7956  142.5044  169.3125 C.ar    1  UNL1        0.0071
     21 C         142.4312  142.1813  167.8938 C.ar    1  UNL1        0.0012
     22 C         144.1394  142.1105  169.8501 C.3     1  UNL1        0.1636
     23 O         145.0919  143.1637  170.3336 O.3     1  UNL1       -0.3772
     24 H         145.3713  143.7147  169.5858 H       1  UNL1        0.2109
     25 C         139.4263  137.9119  164.1489 C.3     1  UNL1        0.1090
     26 C         140.6105  137.2743  164.8130 C.3     1  UNL1        0.0246
     27 C         141.9999  137.6701  164.4094 C.3     1  UNL1        0.0020
     28 C         142.9161  138.3139  165.4075 C.3     1  UNL1        0.0006
     29 C         143.6403  139.5790  165.0537 C.3     1  UNL1        0.0096
     30 C         144.7052  139.5634  163.9975 C.3     1  UNL1        0.0871
     31 O         143.8324  141.1836  162.1637 O.2     1  UNL1       -0.2730
     32 C         144.3461  139.8331  162.5663 C.2     1  UNL1        0.2443
     33 N         144.5007  138.7522  161.5378 N.am    1  UNL1       -0.1970
     34 O         144.1416  139.0219  160.1066 O.3     1  UNL1       -0.2952
     35 H         144.8379  137.8658  161.8021 H       1  UNL1        0.1822
     36 H         143.8290  139.9358  160.0184 H       1  UNL1        0.2414
@<TRIPOS>BOND
     1    31    32    2
     2    32    30    1
     3    30    29    1
     4    29    28    1
     5    28    27    1
     6    27    26    1
     7    26    25    1
     8    25     1    1
     9     1     2   ar
    10     2     3   ar
    11     3     4   ar
    12     4     5   ar
    13     5    10    1
    14    10    11    1
    15    11    12    1
    16    12    13    1
    17    13    14    1
    18    14    15    1
    19     5     6   ar
    20     6     7   ar
    21     7    16    1
    22    16    17   ar
    23    17    18   ar
    24    18    19   ar
    25    19    20   ar
    26    20    22    1
    27    22    23    1
    28    20    21   ar
    29     7     8   ar
    30     8     9   ar
    31    32    33   am
    32    33    34    1
    33     9     1   ar
    34     9     4   ar
    35    15    10    1
    36    21    16   ar
    37    23    24    1
    38    33    35    1
    39    34    36    1
@<TRIPOS>MOLECULE
*****
 36 39 0 0 0
SMALL
GASTEIGER

@<TRIPOS>ATOM
      1 N         142.8115  138.8130  164.7552 N.ar    1  UNL1       -0.2944
      2 C         143.4094  138.2682  166.0183 C.ar    1  UNL1        0.1798
      3 N         143.0186  139.1770  167.1458 N.ar    1  UNL1       -0.2194
      4 C         142.1791  140.2836  166.5795 C.ar    1  UNL1        0.1485
      5 C         141.5146  141.4670  167.2183 C.ar    1  UNL1        0.1543
      6 N         140.7221  142.4254  166.3796 N.ar    1  UNL1       -0.2102
      7 C         140.5941  142.2004  164.9022 C.ar    1  UNL1        0.1653
      8 N         141.2586  141.0170  164.2633 N.ar    1  UNL1       -0.2078
      9 C         142.0511  140.0586  165.1020 C.ar    1  UNL1        0.1672
     10 N         141.6426  141.6920  168.6958 N.pl3   1  UNL1       -0.2868
     11 C         140.6831  141.0314  169.6410 C.3     1  UNL1        0.1243
     12 C         140.8111  141.2564  171.1184 C.3     1  UNL1        0.1636
     13 O         141.8985  142.1419  171.6509 O.3     1  UNL1       -0.3501
     14 C         142.8579  142.8023  170.7058 C.3     1  UNL1        0.1636
     15 C         142.7300  142.5774  169.2282 C.3     1  UNL1        0.1243
     16 C         139.8016  143.1589  164.0635 C.ar    1  UNL1        0.0357
     17 C         138.3273  143.3140  164.2923 C.ar    1  UNL1        0.0030
     18 C         137.5349  144.2724  163.4536 C.ar    1  UNL1       -0.0001
     19 C         138.2167  145.0758  162.3861 C.ar    1  UNL1       -0.0019
     20 C         139.6910  144.9207  162.1572 C.ar    1  UNL1        0.0071
     21 C         140.4835  143.9623  162.9959 C.ar    1  UNL1        0.0012
     22 C         140.3729  145.7241  161.0896 C.3     1  UNL1        0.1636
     23 O         141.7808  145.3965  160.6886 O.3     1  UNL1       -0.3772
     24 H         142.3782  145.5740  161.4319 H       1  UNL1        0.2109
     25 C         142.9496  138.2170  163.3856 C.3     1  UNL1        0.1090
     26 C         144.1307  138.5685  162.5304 C.3     1  UNL1        0.0246
     27 C         144.2452  139.9415  161.9373 C.3     1  UNL1        0.0020
     28 C         143.0828  140.5402  161.2021 C.3     1  UNL1        0.0006
     29 C         143.0415  142.0164  160.9393 C.3     1  UNL1        0.0096
     30 C         144.1749  142.8902  161.3887 C.3     1  UNL1        0.0871
     31 O         144.0663  145.1068  162.7396 O.2     1  UNL1       -0.2730
     32 C         144.0931  143.6075  162.7036 C.2     1  UNL1        0.2443
     33 N         144.0381  142.8254  163.9824 N.am    1  UNL1       -0.1970
     34 O         143.9563  143.5427  165.2973 O.3     1  UNL1       -0.2952
     35 H         144.0556  141.8414  163.9588 H       1  UNL1        0.1822
     36 H         143.9486  144.5004  165.1432 H       1  UNL1        0.2414
@<TRIPOS>BOND
     1    31    32    2
     2    32    30    1
     3    30    29    1
     4    29    28    1
     5    28    27    1
     6    27    26    1
     7    26    25    1
     8    25     1    1
     9     1     2   ar
    10     2     3   ar
    11     3     4   ar
    12     4     5   ar
    13     5    10    1
    14    10    11    1
    15    11    12    1
    16    12    13    1
    17    13    14    1
    18    14    15    1
    19     5     6   ar
    20     6     7   ar
    21     7    16    1
    22    16    17   ar
    23    17    18   ar
    24    18    19   ar
    25    19    20   ar
    26    20    22    1
    27    22    23    1
    28    20    21   ar
    29     7     8   ar
    30     8     9   ar
    31    32    33   am
    32    33    34    1
    33     9     1   ar
    34     9     4   ar
    35    15    10    1
    36    21    16   ar
    37    23    24    1
    38    33    35    1
    39    34    36    1
@<TRIPOS>MOLECULE
*****
 36 39 0 0 0
SMALL
GASTEIGER

@<TRIPOS>ATOM
      1 N         141.9157  144.1982  162.5583 N.ar    1  UNL1       -0.2944
      2 C         142.0508  144.3358  161.0707 C.ar    1  UNL1        0.1798
      3 N         141.3189  143.1934  160.4311 N.ar    1  UNL1       -0.2194
      4 C         140.7314  142.3497  161.5233 C.ar    1  UNL1        0.1485
      5 C         139.9083  141.0961  161.4906 C.ar    1  UNL1        0.1543
      6 N         139.4540  140.4636  162.7726 N.ar    1  UNL1       -0.2102
      7 C         139.8228  141.0846  164.0872 C.ar    1  UNL1        0.1653
      8 N         140.6460  142.3381  164.1199 N.ar    1  UNL1       -0.2078
      9 C         141.1003  142.9707  162.8380 C.ar    1  UNL1        0.1672
     10 N         139.5395  140.4751  160.1760 N.pl3   1  UNL1       -0.2868
     11 C         138.5679  141.1667  159.2661 C.3     1  UNL1        0.1243
     12 C         138.1990  140.5458  157.9515 C.3     1  UNL1        0.1636
     13 O         138.8017  139.2331  157.5466 O.3     1  UNL1       -0.3501
     14 C         139.7733  138.5416  158.4565 C.3     1  UNL1        0.1636
     15 C         140.1422  139.1625  159.7712 C.3     1  UNL1        0.1243
     16 C         139.3684  140.4520  165.3693 C.ar    1  UNL1        0.0357
     17 C         138.2670  139.4338  165.3541 C.ar    1  UNL1        0.0030
     18 C         137.8127  138.8013  166.6361 C.ar    1  UNL1       -0.0001
     19 C         138.4598  139.1869  167.9332 C.ar    1  UNL1       -0.0019
     20 C         139.5613  140.2051  167.9484 C.ar    1  UNL1        0.0071
     21 C         140.0156  140.8376  166.6664 C.ar    1  UNL1        0.0012
     22 C         140.2084  140.5907  169.2455 C.3     1  UNL1        0.1636
     23 O         140.2760  139.6031  170.3726 O.3     1  UNL1       -0.3772
     24 H         139.3792  139.4118  170.6891 H       1  UNL1        0.2109
     25 C         142.4943  145.1253  163.5857 C.3     1  UNL1        0.1090
     26 C         143.8686  144.8752  164.1323 C.3     1  UNL1        0.0246
     27 C         144.1327  143.6593  164.9701 C.3     1  UNL1        0.0020
     28 C         144.9253  142.5175  164.4060 C.3     1  UNL1        0.0006
     29 C         144.2259  141.2695  163.9550 C.3     1  UNL1        0.0096
     30 C         143.4026  140.4781  164.9275 C.3     1  UNL1        0.0871
     31 O         143.0171  137.9913  165.5735 O.2     1  UNL1       -0.2730
     32 C         142.9345  139.0996  164.5661 C.2     1  UNL1        0.2443
     33 N         142.3837  138.8294  163.1972 N.am    1  UNL1       -0.1970
     34 O         141.9155  137.4509  162.8358 O.3     1  UNL1       -0.2952
     35 H         142.3295  139.5568  162.5360 H       1  UNL1        0.1822
     36 H         142.0376  136.8588  163.5943 H       1  UNL1        0.2414
@<TRIPOS>BOND
     1    31    32    2
     2    32    30    1
     3    30    29    1
     4    29    28    1
     5    28    27    1
     6    27    26    1
     7    26    25    1
     8    25     1    1
     9     1     2   ar
    10     2     3   ar
    11     3     4   ar
    12     4     5   ar
    13     5    10    1
    14    10    11    1
    15    11    12    1
    16    12    13    1
    17    13    14    1
    18    14    15    1
    19     5     6   ar
    20     6     7   ar
    21     7    16    1
    22    16    17   ar
    23    17    18   ar
    24    18    19   ar
    25    19    20   ar
    26    20    22    1
    27    22    23    1
    28    20    21   ar
    29     7     8   ar
    30     8     9   ar
    31    32    33   am
    32    33    34    1
    33     9     1   ar
    34     9     4   ar
    35    15    10    1
    36    21    16   ar
    37    23    24    1
    38    33    35    1
    39    34    36    1
@<TRIPOS>MOLECULE
*****
 36 39 0 0 0
SMALL
GASTEIGER

@<TRIPOS>ATOM
      1 N         144.2303  142.7686  164.7669 N.ar    1  UNL1       -0.2944
      2 C         144.7136  143.4601  166.0071 C.ar    1  UNL1        0.1798
      3 N         143.8081  143.0706  167.1378 N.ar    1  UNL1       -0.2194
      4 C         142.7651  142.1384  166.5963 C.ar    1  UNL1        0.1485
      5 C         141.6115  141.4353  167.2482 C.ar    1  UNL1        0.1543
      6 N         140.7189  140.5457  166.4348 N.ar    1  UNL1       -0.2102
      7 C         140.9798  140.3590  164.9696 C.ar    1  UNL1        0.1653
      8 N         142.1334  141.0621  164.3176 N.ar    1  UNL1       -0.2078
      9 C         143.0261  141.9518  165.1310 C.ar    1  UNL1        0.1672
     10 N         141.3506  141.6220  168.7135 N.pl3   1  UNL1       -0.2868
     11 C         140.3336  142.6246  169.1725 C.3     1  UNL1        0.1243
     12 C         140.0727  142.8113  170.6377 C.3     1  UNL1        0.1636
     13 O         140.8286  141.9953  171.6441 O.3     1  UNL1       -0.3501
     14 C         141.8455  140.9927  171.1851 C.3     1  UNL1        0.1636
     15 C         142.1065  140.8060  169.7198 C.3     1  UNL1        0.1243
     16 C         140.0871  139.4693  164.1561 C.ar    1  UNL1        0.0357
     17 C         139.7325  138.1012  164.6586 C.ar    1  UNL1        0.0030
     18 C         138.8398  137.2116  163.8452 C.ar    1  UNL1       -0.0001
     19 C         138.3018  137.6900  162.5292 C.ar    1  UNL1       -0.0019
     20 C         138.6565  139.0581  162.0267 C.ar    1  UNL1        0.0071
     21 C         139.5491  139.9477  162.8402 C.ar    1  UNL1        0.0012
     22 C         138.1185  139.5365  160.7108 C.3     1  UNL1        0.1636
     23 O         136.6694  139.9018  160.5812 O.3     1  UNL1       -0.3772
     24 H         136.1240  139.1086  160.7009 H       1  UNL1        0.2109
     25 C         144.8435  142.8753  163.4021 C.3     1  UNL1        0.1090
     26 C         144.3535  143.9155  162.4389 C.3     1  UNL1        0.0246
     27 C         142.8808  144.1238  162.2451 C.3     1  UNL1        0.0020
     28 C         142.1315  145.0629  163.1432 C.3     1  UNL1        0.0006
     29 C         140.8109  145.6246  162.7068 C.3     1  UNL1        0.0096
     30 C         139.8564  144.7739  161.9224 C.3     1  UNL1        0.0871
     31 O         139.3867  143.2865  164.0000 O.2     1  UNL1       -0.2730
     32 C         139.0124  143.7515  162.6240 C.2     1  UNL1        0.2443
     33 N         137.7941  143.1940  161.9494 N.am    1  UNL1       -0.1970
     34 O         136.9501  142.1716  162.6511 O.3     1  UNL1       -0.2952
     35 H         137.5484  143.4992  161.0463 H       1  UNL1        0.1822
     36 H         137.3288  141.9837  163.5241 H       1  UNL1        0.2414
@<TRIPOS>BOND
     1    31    32    2
     2    32    30    1
     3    30    29    1
     4    29    28    1
     5    28    27    1
     6    27    26    1
     7    26    25    1
     8    25     1    1
     9     1     2   ar
    10     2     3   ar
    11     3     4   ar
    12     4     5   ar
    13     5    10    1
    14    10    11    1
    15    11    12    1
    16    12    13    1
    17    13    14    1
    18    14    15    1
    19     5     6   ar
    20     6     7   ar
    21     7    16    1
    22    16    17   ar
    23    17    18   ar
    24    18    19   ar
    25    19    20   ar
    26    20    22    1
    27    22    23    1
    28    20    21   ar
    29     7     8   ar
    30     8     9   ar
    31    32    33   am
    32    33    34    1
    33     9     1   ar
    34     9     4   ar
    35    15    10    1
    36    21    16   ar
    37    23    24    1
    38    33    35    1
    39    34    36    1
@<TRIPOS>MOLECULE
*****
 36 39 0 0 0
SMALL
GASTEIGER

@<TRIPOS>ATOM
      1 N         143.5572  143.7791  164.0365 N.ar    1  UNL1       -0.2944
      2 C         143.8597  144.8486  163.0292 C.ar    1  UNL1        0.1798
      3 N         142.9548  144.6445  161.8505 N.ar    1  UNL1       -0.2194
      4 C         142.0929  143.4489  162.1293 C.ar    1  UNL1        0.1485
      5 C         141.0172  142.7781  161.3276 C.ar    1  UNL1        0.1543
      6 N         140.3138  141.5725  161.8769 N.ar    1  UNL1       -0.2102
      7 C         140.6861  141.0377  163.2278 C.ar    1  UNL1        0.1653
      8 N         141.7619  141.7085  164.0297 N.ar    1  UNL1       -0.2078
      9 C         142.4652  142.9141  163.4804 C.ar    1  UNL1        0.1672
     10 N         140.6448  143.3129  159.9765 N.pl3   1  UNL1       -0.2868
     11 C         140.2433  142.3700  158.8811 C.3     1  UNL1        0.1243
     12 C         139.8710  142.9047  157.5302 C.3     1  UNL1        0.1636
     13 O         139.9001  144.3825  157.2744 O.3     1  UNL1       -0.3501
     14 C         140.3016  145.3254  158.3697 C.3     1  UNL1        0.1636
     15 C         140.6739  144.7907  159.7208 C.3     1  UNL1        0.1243
     16 C         139.9827  139.8320  163.7771 C.ar    1  UNL1        0.0357
     17 C         139.9977  138.5417  163.0124 C.ar    1  UNL1        0.0030
     18 C         139.2943  137.3361  163.5617 C.ar    1  UNL1       -0.0001
     19 C         138.5759  137.4208  164.8757 C.ar    1  UNL1       -0.0019
     20 C         138.5608  138.7111  165.6405 C.ar    1  UNL1        0.0071
     21 C         139.2642  139.9167  165.0912 C.ar    1  UNL1        0.0012
     22 C         137.8424  138.7958  166.9545 C.3     1  UNL1        0.1636
     23 O         136.9248  137.6882  167.3803 O.3     1  UNL1       -0.3772
     24 H         136.1631  137.6509  166.7809 H       1  UNL1        0.2109
     25 C         144.2287  143.6052  165.3665 C.3     1  UNL1        0.1090
     26 C         143.9568  142.3811  166.1896 C.3     1  UNL1        0.0246
     27 C         142.9618  142.4370  167.3107 C.3     1  UNL1        0.0020
     28 C         142.0549  141.2700  167.5675 C.3     1  UNL1        0.0006
     29 C         140.6415  141.5023  168.0127 C.3     1  UNL1        0.0096
     30 C         140.2841  141.3874  169.4649 C.3     1  UNL1        0.0871
     31 O         139.9546  142.5132  171.7831 O.2     1  UNL1       -0.2730
     32 C         140.1158  142.6248  170.2960 C.2     1  UNL1        0.2443
     33 N         140.1087  143.9737  169.6399 N.am    1  UNL1       -0.1970
     34 O         139.9404  145.2110  170.4710 O.3     1  UNL1       -0.2952
     35 H         140.2145  144.0469  168.6638 H       1  UNL1        0.1822
     36 H         139.8498  144.9637  171.4045 H       1  UNL1        0.2414
@<TRIPOS>BOND
     1    31    32    2
     2    32    30    1
     3    30    29    1
     4    29    28    1
     5    28    27    1
     6    27    26    1
     7    26    25    1
     8    25     1    1
     9     1     2   ar
    10     2     3   ar
    11     3     4   ar
    12     4     5   ar
    13     5    10    1
    14    10    11    1
    15    11    12    1
    16    12    13    1
    17    13    14    1
    18    14    15    1
    19     5     6   ar
    20     6     7   ar
    21     7    16    1
    22    16    17   ar
    23    17    18   ar
    24    18    19   ar
    25    19    20   ar
    26    20    22    1
    27    22    23    1
    28    20    21   ar
    29     7     8   ar
    30     8     9   ar
    31    32    33   am
    32    33    34    1
    33     9     1   ar
    34     9     4   ar
    35    15    10    1
    36    21    16   ar
    37    23    24    1
    38    33    35    1
    39    34    36    1
