@<TRIPOS>MOLECULE
*****
 36 40 0 0 0
SMALL
GASTEIGER

@<TRIPOS>ATOM
      1 C         143.3214  142.0101  162.5207 C.ar    1  UNL1        0.1074
      2 C         144.7088  141.4428  162.5775 C.ar    1  UNL1        0.0588
      3 S         144.8995  140.8190  163.9283 S.2     1  UNL1       -0.0508
      4 C         143.6299  141.0009  164.7062 C.ar    1  UNL1        0.1646
      5 N         142.6547  141.7370  163.8362 N.ar    1  UNL1       -0.2224
      6 C         140.9035  144.3272  160.3911 C.ar    1  UNL1        0.2416
      7 N         141.5164  143.6122  161.5586 N.ar    1  UNL1       -0.2089
      8 C         142.7085  142.7251  161.3532 C.ar    1  UNL1        0.1026
      9 C         143.2875  142.5530  159.9801 C.ar    1  UNL1        0.0224
     10 C         142.6745  143.2680  158.8126 C.ar    1  UNL1        0.0239
     11 C         141.4825  144.1551  159.0181 C.ar    1  UNL1        0.1189
     12 N         140.8695  144.8701  157.8506 N.ar    1  UNL1       -0.2826
     13 C         141.4162  146.0965  157.1818 C.ar    1  UNL1        0.1826
     14 N         140.4868  146.4685  156.0648 N.ar    1  UNL1       -0.2280
     15 C         139.3657  145.4721  156.0432 C.ar    1  UNL1        0.0786
     16 C         138.2109  145.4649  155.0860 C.3     1  UNL1        0.0538
     17 C         139.6023  144.4842  157.1470 C.ar    1  UNL1        0.0963
     18 C         139.7519  146.2962  161.6347 C.3     1  UNL1        0.2543
     19 O         139.7115  145.2142  160.5966 O.3     1  UNL1       -0.4551
     20 N         143.3796  140.5293  166.1080 N.pl3   1  UNL1       -0.2786
     21 H         144.1336  140.2464  166.6743 H       1  UNL1        0.1555
     22 C         141.9804  140.4889  166.6471 C.ar    1  UNL1        0.1276
     23 C         140.8918  139.5565  166.2048 C.ar    1  UNL1        0.0244
     24 C         139.6627  139.8651  167.0074 C.ar    1  UNL1        0.0773
     25 N         139.9918  140.9882  167.9457 N.ar    1  UNL1       -0.1728
     26 N         141.4242  141.3737  167.7231 N.ar    1  UNL1       -0.2359
     27 C         138.4028  139.0835  166.7802 C.3     1  UNL1        0.0474
     28 C         138.3719  137.9934  165.7503 C.3     1  UNL1        0.0067
     29 C         139.6009  137.6849  164.9477 C.3     1  UNL1        0.0052
     30 C         140.8609  138.4664  165.1749 C.3     1  UNL1        0.0305
     31 C         142.1695  142.4543  168.4489 C.3     1  UNL1        0.1555
     32 C         142.2084  142.4614  169.9483 C.3     1  UNL1        0.1110
     33 C         143.3480  141.4865  169.9233 C.3     1  UNL1        0.0314
     34 C         141.0688  143.4363  169.9733 C.3     1  UNL1        0.0314
     35 O         142.2474  142.4684  171.4479 O.3     1  UNL1       -0.3848
     36 H         142.9506  141.8755  171.7558 H       1  UNL1        0.2103
@<TRIPOS>BOND
     1    18    19    1
     2    19     6    1
     3     6     7   ar
     4     7     8   ar
     5     8     1    1
     6     1     2   ar
     7     2     3   ar
     8     3     4   ar
     9     4    20    1
    10    20    22    1
    11    22    23   ar
    12    23    24   ar
    13    24    25   ar
    14    25    26   ar
    15    26    31    1
    16    31    32    1
    17    32    33    1
    18    32    34    1
    19    32    35    1
    20    24    27    1
    21    27    28    1
    22    28    29    1
    23    29    30    1
    24     4     5   ar
    25     8     9   ar
    26     9    10   ar
    27    10    11   ar
    28    11    12    1
    29    12    13   ar
    30    13    14   ar
    31    14    15   ar
    32    15    16    1
    33    15    17   ar
    34    11     6   ar
    35    17    12   ar
    36     5     1   ar
    37    26    22   ar
    38    30    23    1
    39    20    21    1
    40    35    36    1
@<TRIPOS>MOLECULE
*****
 36 40 0 0 0
SMALL
GASTEIGER

@<TRIPOS>ATOM
      1 C         142.6012  143.2345  163.2446 C.ar    1  UNL1        0.1074
      2 C         143.8141  143.8487  163.8782 C.ar    1  UNL1        0.0588
      3 S         144.0730  143.1348  165.1718 S.2     1  UNL1       -0.0508
      4 C         143.0199  142.0795  165.3376 C.ar    1  UNL1        0.1646
      5 N         142.1103  142.1412  164.1465 N.ar    1  UNL1       -0.2224
      6 C         142.2262  144.1594  159.4034 C.ar    1  UNL1        0.2416
      7 N         142.8406  143.7517  160.7097 N.ar    1  UNL1       -0.2089
      8 C         141.9869  143.6423  161.9383 C.ar    1  UNL1        0.1026
      9 C         140.5189  143.9406  161.8605 C.ar    1  UNL1        0.0224
     10 C         139.9046  144.3483  160.5541 C.ar    1  UNL1        0.0239
     11 C         140.7583  144.4577  159.3256 C.ar    1  UNL1        0.1189
     12 N         140.1441  144.8654  158.0194 N.ar    1  UNL1       -0.2826
     13 C         139.4517  143.9554  157.0484 C.ar    1  UNL1        0.1826
     14 N         138.9940  144.7822  155.8837 N.ar    1  UNL1       -0.2280
     15 C         139.4035  146.2034  156.1346 C.ar    1  UNL1        0.0786
     16 C         139.1471  147.3684  155.2253 C.3     1  UNL1        0.0538
     17 C         140.1142  146.2547  157.4546 C.ar    1  UNL1        0.0963
     18 C         143.2842  143.0717  157.2945 C.3     1  UNL1        0.2543
     19 O         143.0800  144.2688  158.1750 O.3     1  UNL1       -0.4551
     20 N         142.8979  141.1293  166.4920 N.pl3   1  UNL1       -0.2786
     21 H         143.7077  140.7757  166.9261 H       1  UNL1        0.1555
     22 C         141.5422  140.7180  166.9847 C.ar    1  UNL1        0.1276
     23 C         140.6418  139.7034  166.3444 C.ar    1  UNL1        0.0244
     24 C         139.3920  139.6074  167.1682 C.ar    1  UNL1        0.0773
     25 N         139.5200  140.5626  168.3176 N.ar    1  UNL1       -0.1728
     26 N         140.8489  141.2490  168.2043 N.ar    1  UNL1       -0.2359
     27 C         138.2989  138.6626  166.7652 C.3     1  UNL1        0.0474
     28 C         138.4556  137.8139  165.5385 C.3     1  UNL1        0.0067
     29 C         139.7054  137.9099  164.7147 C.3     1  UNL1        0.0052
     30 C         140.7986  138.8547  165.1176 C.3     1  UNL1        0.0305
     31 C         141.3895  142.2845  169.1452 C.3     1  UNL1        0.1555
     32 C         140.9986  142.2594  170.5931 C.3     1  UNL1        0.1110
     33 C         140.0398  143.3878  170.3539 C.3     1  UNL1        0.0314
     34 C         141.9573  141.1309  170.8324 C.3     1  UNL1        0.0314
     35 O         140.6076  142.2342  172.0411 O.3     1  UNL1       -0.3848
     36 H         139.9388  142.9168  172.2073 H       1  UNL1        0.2103
@<TRIPOS>BOND
     1    18    19    1
     2    19     6    1
     3     6     7   ar
     4     7     8   ar
     5     8     1    1
     6     1     2   ar
     7     2     3   ar
     8     3     4   ar
     9     4    20    1
    10    20    22    1
    11    22    23   ar
    12    23    24   ar
    13    24    25   ar
    14    25    26   ar
    15    26    31    1
    16    31    32    1
    17    32    33    1
    18    32    34    1
    19    32    35    1
    20    24    27    1
    21    27    28    1
    22    28    29    1
    23    29    30    1
    24     4     5   ar
    25     8     9   ar
    26     9    10   ar
    27    10    11   ar
    28    11    12    1
    29    12    13   ar
    30    13    14   ar
    31    14    15   ar
    32    15    16    1
    33    15    17   ar
    34    11     6   ar
    35    17    12   ar
    36     5     1   ar
    37    26    22   ar
    38    30    23    1
    39    20    21    1
    40    35    36    1
@<TRIPOS>MOLECULE
*****
 36 40 0 0 0
SMALL
GASTEIGER

@<TRIPOS>ATOM
      1 C         140.3123  139.7632  159.5795 C.ar    1  UNL1        0.1074
      2 C         139.7909  141.1616  159.4293 C.ar    1  UNL1        0.0588
      3 S         139.6679  141.7600  160.7992 S.2     1  UNL1       -0.0508
      4 C         140.1132  140.7314  161.7961 C.ar    1  UNL1        0.1646
      5 N         140.5115  139.4973  161.0422 N.ar    1  UNL1       -0.2224
      6 C         139.7313  137.3291  156.4992 C.ar    1  UNL1        0.2416
      7 N         139.4572  138.2925  157.6157 N.ar    1  UNL1       -0.2089
      8 C         140.5864  138.7997  158.4630 C.ar    1  UNL1        0.1026
      9 C         141.9897  138.3435  158.1936 C.ar    1  UNL1        0.0224
     10 C         142.2638  137.3800  157.0770 C.ar    1  UNL1        0.0239
     11 C         141.1346  136.8729  156.2298 C.ar    1  UNL1        0.1189
     12 N         141.4087  135.9094  155.1133 N.ar    1  UNL1       -0.2826
     13 C         141.5602  136.2607  153.6628 C.ar    1  UNL1        0.1826
     14 N         141.8245  134.9940  152.9042 N.ar    1  UNL1       -0.2280
     15 C         141.8364  133.8597  153.8859 C.ar    1  UNL1        0.0786
     16 C         142.0652  132.4137  153.5595 C.3     1  UNL1        0.0538
     17 C         141.5794  134.4256  155.2511 C.ar    1  UNL1        0.0963
     18 C         138.0640  137.6669  154.5355 C.3     1  UNL1        0.2543
     19 O         138.6021  136.8220  155.6520 O.3     1  UNL1       -0.4551
     20 N         140.1532  140.9062  163.2854 N.pl3   1  UNL1       -0.2786
     21 H         139.3297  140.8043  163.8153 H       1  UNL1        0.1555
     22 C         141.4478  141.2364  163.9673 C.ar    1  UNL1        0.1276
     23 C         142.1083  142.5827  164.0007 C.ar    1  UNL1        0.0244
     24 C         143.3779  142.4567  164.7895 C.ar    1  UNL1        0.0773
     25 N         143.5020  141.0324  165.2436 N.ar    1  UNL1       -0.1728
     26 N         142.3091  140.2783  164.7354 N.ar    1  UNL1       -0.2359
     27 C         144.2570  143.6550  164.9924 C.3     1  UNL1        0.0474
     28 C         143.8665  144.9794  164.4064 C.3     1  UNL1        0.0067
     29 C         142.5969  145.1055  163.6176 C.3     1  UNL1        0.0052
     30 C         141.7178  143.9071  163.4147 C.3     1  UNL1        0.0305
     31 C         142.0270  138.8217  164.9566 C.3     1  UNL1        0.1555
     32 C         141.7685  137.9215  163.7850 C.3     1  UNL1        0.1110
     33 C         143.0554  138.3687  163.1574 C.3     1  UNL1        0.0314
     34 C         140.4817  137.4743  164.4126 C.3     1  UNL1        0.0314
     35 O         141.5100  137.0212  162.6133 O.3     1  UNL1       -0.3848
     36 H         142.2389  137.0999  161.9781 H       1  UNL1        0.2103
@<TRIPOS>BOND
     1    18    19    1
     2    19     6    1
     3     6     7   ar
     4     7     8   ar
     5     8     1    1
     6     1     2   ar
     7     2     3   ar
     8     3     4   ar
     9     4    20    1
    10    20    22    1
    11    22    23   ar
    12    23    24   ar
    13    24    25   ar
    14    25    26   ar
    15    26    31    1
    16    31    32    1
    17    32    33    1
    18    32    34    1
    19    32    35    1
    20    24    27    1
    21    27    28    1
    22    28    29    1
    23    29    30    1
    24     4     5   ar
    25     8     9   ar
    26     9    10   ar
    27    10    11   ar
    28    11    12    1
    29    12    13   ar
    30    13    14   ar
    31    14    15   ar
    32    15    16    1
    33    15    17   ar
    34    11     6   ar
    35    17    12   ar
    36     5     1   ar
    37    26    22   ar
    38    30    23    1
    39    20    21    1
    40    35    36    1
@<TRIPOS>MOLECULE
*****
 36 40 0 0 0
SMALL
GASTEIGER

@<TRIPOS>ATOM
      1 C         143.9550  140.6246  161.9079 C.ar    1  UNL1        0.1074
      2 C         144.9197  141.7706  161.8306 C.ar    1  UNL1        0.0588
      3 S         145.0275  142.3786  163.1976 S.2     1  UNL1       -0.0508
      4 C         144.1294  141.6085  164.1196 C.ar    1  UNL1        0.1646
      5 N         143.4665  140.5244  163.3225 N.ar    1  UNL1       -0.2224
      6 C         143.0727  139.3958  158.2388 C.ar    1  UNL1        0.2416
      7 N         143.4779  140.2854  159.3765 N.ar    1  UNL1       -0.2089
      8 C         143.5498  139.7350  160.7701 C.ar    1  UNL1        0.1026
      9 C         143.2166  138.2950  161.0259 C.ar    1  UNL1        0.0224
     10 C         142.8114  137.4054  159.8881 C.ar    1  UNL1        0.0239
     11 C         142.7394  137.9559  158.4946 C.ar    1  UNL1        0.1189
     12 N         142.3343  137.0663  157.3568 N.ar    1  UNL1       -0.2826
     13 C         141.0298  137.1185  156.6181 C.ar    1  UNL1        0.1826
     14 N         141.0517  136.0528  155.5628 N.ar    1  UNL1       -0.2280
     15 C         142.3698  135.3419  155.6492 C.ar    1  UNL1        0.0786
     16 C         142.8167  134.2043  154.7796 C.3     1  UNL1        0.0538
     17 C         143.1624  135.9683  156.7581 C.ar    1  UNL1        0.0963
     18 C         144.1867  139.8364  155.9334 C.3     1  UNL1        0.2543
     19 O         143.0007  139.9462  156.8453 O.3     1  UNL1       -0.4551
     20 N         143.9292  141.8755  165.5821 N.pl3   1  UNL1       -0.2786
     21 H         144.6986  141.8551  166.1960 H       1  UNL1        0.1555
     22 C         142.5568  142.1734  166.1092 C.ar    1  UNL1        0.1276
     23 C         141.5472  143.0835  165.4749 C.ar    1  UNL1        0.0244
     24 C         140.3195  143.0862  166.3367 C.ar    1  UNL1        0.0773
     25 N         140.5704  142.1776  167.5036 N.ar    1  UNL1       -0.1728
     26 N         141.9532  141.6135  167.3630 N.ar    1  UNL1       -0.2359
     27 C         139.1318  143.9155  165.9476 C.3     1  UNL1        0.0474
     28 C         139.1717  144.7421  164.6966 C.3     1  UNL1        0.0067
     29 C         140.3994  144.7395  163.8348 C.3     1  UNL1        0.0052
     30 C         141.5872  143.9102  164.2239 C.3     1  UNL1        0.0305
     31 C         142.6159  140.6574  168.3100 C.3     1  UNL1        0.1555
     32 C         142.5123  140.8752  169.7904 C.3     1  UNL1        0.1110
     33 C         141.5601  139.7208  169.8936 C.3     1  UNL1        0.0314
     34 C         143.4644  142.0296  169.6872 C.3     1  UNL1        0.0314
     35 O         142.4086  141.0930  171.2710 O.3     1  UNL1       -0.3848
     36 H         141.8058  140.4361  171.6530 H       1  UNL1        0.2103
@<TRIPOS>BOND
     1    18    19    1
     2    19     6    1
     3     6     7   ar
     4     7     8   ar
     5     8     1    1
     6     1     2   ar
     7     2     3   ar
     8     3     4   ar
     9     4    20    1
    10    20    22    1
    11    22    23   ar
    12    23    24   ar
    13    24    25   ar
    14    25    26   ar
    15    26    31    1
    16    31    32    1
    17    32    33    1
    18    32    34    1
    19    32    35    1
    20    24    27    1
    21    27    28    1
    22    28    29    1
    23    29    30    1
    24     4     5   ar
    25     8     9   ar
    26     9    10   ar
    27    10    11   ar
    28    11    12    1
    29    12    13   ar
    30    13    14   ar
    31    14    15   ar
    32    15    16    1
    33    15    17   ar
    34    11     6   ar
    35    17    12   ar
    36     5     1   ar
    37    26    22   ar
    38    30    23    1
    39    20    21    1
    40    35    36    1
@<TRIPOS>MOLECULE
*****
 36 40 0 0 0
SMALL
GASTEIGER

@<TRIPOS>ATOM
      1 C         142.9378  138.2026  158.2024 C.ar    1  UNL1        0.1074
      2 C         142.8211  139.6614  157.8732 C.ar    1  UNL1        0.0588
      3 S         143.3200  140.4438  159.0518 S.2     1  UNL1       -0.0508
      4 C         143.7449  139.4685  160.1093 C.ar    1  UNL1        0.1646
      5 N         143.5087  138.0834  159.5843 N.ar    1  UNL1       -0.2224
      6 C         143.0629  134.7284  156.2881 C.ar    1  UNL1        0.2416
      7 N         143.4494  135.8679  157.1838 N.ar    1  UNL1       -0.2089
      8 C         142.5513  137.0631  157.3068 C.ar    1  UNL1        0.1026
      9 C         141.2668  137.1187  156.5342 C.ar    1  UNL1        0.0224
     10 C         140.8804  135.9791  155.6385 C.ar    1  UNL1        0.0239
     11 C         141.7784  134.7840  155.5155 C.ar    1  UNL1        0.1189
     12 N         141.3920  133.6444  154.6199 N.ar    1  UNL1       -0.2826
     13 C         141.3193  133.6856  153.1222 C.ar    1  UNL1        0.1826
     14 N         140.8928  132.3304  152.6414 N.ar    1  UNL1       -0.2280
     15 C         140.7018  131.4514  153.8420 C.ar    1  UNL1        0.0786
     16 C         140.2770  130.0130  153.8230 C.3     1  UNL1        0.0538
     17 C         141.0104  132.2637  155.0648 C.ar    1  UNL1        0.0963
     18 C         144.4412  132.8260  157.3977 C.3     1  UNL1        0.2543
     19 O         143.9610  133.5333  156.1651 O.3     1  UNL1       -0.4551
     20 N         144.3074  139.8172  161.4555 N.pl3   1  UNL1       -0.2786
     21 H         145.2814  139.8109  161.5987 H       1  UNL1        0.1555
     22 C         143.3858  140.1754  162.5835 C.ar    1  UNL1        0.1276
     23 C         142.4036  139.2551  163.2457 C.ar    1  UNL1        0.0244
     24 C         141.6953  140.0277  164.3187 C.ar    1  UNL1        0.0773
     25 N         142.2398  141.4254  164.3198 N.ar    1  UNL1       -0.1728
     26 N         143.2845  141.5167  163.2473 N.ar    1  UNL1       -0.2359
     27 C         140.6461  139.3586  165.1563 C.3     1  UNL1        0.0474
     28 C         140.3052  137.9170  164.9208 C.3     1  UNL1        0.0067
     29 C         141.0135  137.1445  163.8477 C.3     1  UNL1        0.0052
     30 C         142.0627  137.8135  163.0101 C.3     1  UNL1        0.0305
     31 C         144.0871  142.7353  162.8997 C.3     1  UNL1        0.1555
     32 C         143.3930  144.0334  162.6113 C.3     1  UNL1        0.1110
     33 C         143.8458  144.5700  163.9368 C.3     1  UNL1        0.0314
     34 C         142.9402  143.4967  161.2858 C.3     1  UNL1        0.0314
     35 O         142.6989  145.3315  162.3229 O.3     1  UNL1       -0.3848
     36 H         142.8253  145.9385  163.0689 H       1  UNL1        0.2103
@<TRIPOS>BOND
     1    18    19    1
     2    19     6    1
     3     6     7   ar
     4     7     8   ar
     5     8     1    1
     6     1     2   ar
     7     2     3   ar
     8     3     4   ar
     9     4    20    1
    10    20    22    1
    11    22    23   ar
    12    23    24   ar
    13    24    25   ar
    14    25    26   ar
    15    26    31    1
    16    31    32    1
    17    32    33    1
    18    32    34    1
    19    32    35    1
    20    24    27    1
    21    27    28    1
    22    28    29    1
    23    29    30    1
    24     4     5   ar
    25     8     9   ar
    26     9    10   ar
    27    10    11   ar
    28    11    12    1
    29    12    13   ar
    30    13    14   ar
    31    14    15   ar
    32    15    16    1
    33    15    17   ar
    34    11     6   ar
    35    17    12   ar
    36     5     1   ar
    37    26    22   ar
    38    30    23    1
    39    20    21    1
    40    35    36    1
@<TRIPOS>MOLECULE
*****
 36 40 0 0 0
SMALL
GASTEIGER

@<TRIPOS>ATOM
      1 C         138.8245  142.8110  162.1798 C.ar    1  UNL1        0.1074
      2 C         137.8676  143.6077  163.0164 C.ar    1  UNL1        0.0588
      3 S         138.5581  143.9616  164.3001 S.2     1  UNL1       -0.0508
      4 C         139.9416  143.3837  164.2569 C.ar    1  UNL1        0.1646
      5 N         140.1062  142.6726  162.9465 N.ar    1  UNL1       -0.2224
      6 C         138.4277  142.5595  158.2391 C.ar    1  UNL1        0.2416
      7 N         138.7042  143.1195  159.6029 N.ar    1  UNL1       -0.2089
      8 C         138.5480  142.2511  160.8160 C.ar    1  UNL1        0.1026
      9 C         138.1154  140.8228  160.6652 C.ar    1  UNL1        0.0224
     10 C         137.8390  140.2629  159.3013 C.ar    1  UNL1        0.0239
     11 C         137.9951  141.1313  158.0883 C.ar    1  UNL1        0.1189
     12 N         137.7187  140.5714  156.7244 N.ar    1  UNL1       -0.2826
     13 C         138.6561  139.7297  155.9102 C.ar    1  UNL1        0.1826
     14 N         137.9731  139.3929  154.6180 N.ar    1  UNL1       -0.2280
     15 C         136.6135  140.0265  154.6334 C.ar    1  UNL1        0.0786
     16 C         135.5908  139.9459  153.5391 C.3     1  UNL1        0.0538
     17 C         136.4563  140.7548  155.9354 C.ar    1  UNL1        0.0963
     18 C         139.9094  143.5114  156.3289 C.3     1  UNL1        0.2543
     19 O         138.5839  143.4280  157.0260 O.3     1  UNL1       -0.4551
     20 N         140.9785  143.4970  165.3350 N.pl3   1  UNL1       -0.2786
     21 H         141.1836  144.3750  165.7304 H       1  UNL1        0.1555
     22 C         141.7030  142.2726  165.8104 C.ar    1  UNL1        0.1276
     23 C         141.4538  141.5452  167.0983 C.ar    1  UNL1        0.0244
     24 C         142.4006  140.3837  167.1653 C.ar    1  UNL1        0.0773
     25 N         143.2350  140.3934  165.9188 N.ar    1  UNL1       -0.1728
     26 N         142.8039  141.5608  165.0814 N.ar    1  UNL1       -0.2359
     27 C         142.3807  139.4674  168.3527 C.3     1  UNL1        0.0474
     28 C         141.4140  139.7125  169.4731 C.3     1  UNL1        0.0067
     29 C         140.4671  140.8740  169.4061 C.3     1  UNL1        0.0052
     30 C         140.4871  141.7903  168.2187 C.3     1  UNL1        0.0305
     31 C         143.3735  141.9483  163.7490 C.3     1  UNL1        0.1555
     32 C         144.8536  141.8767  163.5167 C.3     1  UNL1        0.1110
     33 C         144.6488  140.7377  162.5625 C.3     1  UNL1        0.0314
     34 C         145.0585  143.0158  164.4709 C.3     1  UNL1        0.0314
     35 O         146.3339  141.8051  163.2843 O.3     1  UNL1       -0.3848
     36 H         146.5280  141.0952  162.6525 H       1  UNL1        0.2103
@<TRIPOS>BOND
     1    18    19    1
     2    19     6    1
     3     6     7   ar
     4     7     8   ar
     5     8     1    1
     6     1     2   ar
     7     2     3   ar
     8     3     4   ar
     9     4    20    1
    10    20    22    1
    11    22    23   ar
    12    23    24   ar
    13    24    25   ar
    14    25    26   ar
    15    26    31    1
    16    31    32    1
    17    32    33    1
    18    32    34    1
    19    32    35    1
    20    24    27    1
    21    27    28    1
    22    28    29    1
    23    29    30    1
    24     4     5   ar
    25     8     9   ar
    26     9    10   ar
    27    10    11   ar
    28    11    12    1
    29    12    13   ar
    30    13    14   ar
    31    14    15   ar
    32    15    16    1
    33    15    17   ar
    34    11     6   ar
    35    17    12   ar
    36     5     1   ar
    37    26    22   ar
    38    30    23    1
    39    20    21    1
    40    35    36    1
@<TRIPOS>MOLECULE
*****
 36 40 0 0 0
SMALL
GASTEIGER

@<TRIPOS>ATOM
      1 C         142.8077  140.1300  159.9069 C.ar    1  UNL1        0.1074
      2 C         141.6698  139.1736  159.7063 C.ar    1  UNL1        0.0588
      3 S         141.0088  138.9545  161.0348 S.2     1  UNL1       -0.0508
      4 C         141.7382  139.7755  162.0565 C.ar    1  UNL1        0.1646
      5 N         142.8500  140.5020  161.3594 N.ar    1  UNL1       -0.2224
      6 C         145.0329  140.2374  156.6225 C.ar    1  UNL1        0.2416
      7 N         144.1008  139.7402  157.6874 N.ar    1  UNL1       -0.2089
      8 C         143.7397  140.6272  158.8420 C.ar    1  UNL1        0.1026
      9 C         144.3107  142.0114  158.9315 C.ar    1  UNL1        0.0224
     10 C         145.2428  142.5086  157.8665 C.ar    1  UNL1        0.0239
     11 C         145.6038  141.6215  156.7120 C.ar    1  UNL1        0.1189
     12 N         146.5359  142.1187  155.6471 N.ar    1  UNL1       -0.2826
     13 C         146.1713  143.0267  154.5100 C.ar    1  UNL1        0.1826
     14 N         147.4062  143.2644  153.6924 N.ar    1  UNL1       -0.2280
     15 C         148.5340  142.5033  154.3241 C.ar    1  UNL1        0.0786
     16 C         149.9509  142.4582  153.8338 C.3     1  UNL1        0.0538
     17 C         147.9960  141.7952  155.5322 C.ar    1  UNL1        0.0963
     18 C         144.6533  139.4712  154.1691 C.3     1  UNL1        0.2543
     19 O         145.3939  139.3504  155.4680 O.3     1  UNL1       -0.4551
     20 N         141.4129  139.8558  163.5187 N.pl3   1  UNL1       -0.2786
     21 H         141.3028  139.0309  164.0446 H       1  UNL1        0.1555
     22 C         141.2554  141.1932  164.1796 C.ar    1  UNL1        0.1276
     23 C         140.0073  142.0250  164.2000 C.ar    1  UNL1        0.0244
     24 C         140.2988  143.2794  164.9691 C.ar    1  UNL1        0.0773
     25 N         141.7271  143.2228  165.4240 N.ar    1  UNL1       -0.1728
     26 N         142.3183  141.9335  164.9361 N.ar    1  UNL1       -0.2359
     27 C         139.2261  144.3110  165.1558 C.3     1  UNL1        0.0474
     28 C         137.8619  144.0883  164.5734 C.3     1  UNL1        0.0067
     29 C         137.5704  142.8339  163.8043 C.3     1  UNL1        0.0052
     30 C         138.6431  141.8022  163.6176 C.3     1  UNL1        0.0305
     31 C         143.7253  141.4664  165.1645 C.3     1  UNL1        0.1555
     32 C         144.6625  141.3131  164.0035 C.3     1  UNL1        0.1110
     33 C         144.8269  139.8580  164.3283 C.3     1  UNL1        0.0314
     34 C         144.4980  142.7682  163.6786 C.3     1  UNL1        0.0314
     35 O         145.5997  141.1597  162.8423 O.3     1  UNL1       -0.3848
     36 H         145.9020  140.2395  162.7902 H       1  UNL1        0.2103
@<TRIPOS>BOND
     1    18    19    1
     2    19     6    1
     3     6     7   ar
     4     7     8   ar
     5     8     1    1
     6     1     2   ar
     7     2     3   ar
     8     3     4   ar
     9     4    20    1
    10    20    22    1
    11    22    23   ar
    12    23    24   ar
    13    24    25   ar
    14    25    26   ar
    15    26    31    1
    16    31    32    1
    17    32    33    1
    18    32    34    1
    19    32    35    1
    20    24    27    1
    21    27    28    1
    22    28    29    1
    23    29    30    1
    24     4     5   ar
    25     8     9   ar
    26     9    10   ar
    27    10    11   ar
    28    11    12    1
    29    12    13   ar
    30    13    14   ar
    31    14    15   ar
    32    15    16    1
    33    15    17   ar
    34    11     6   ar
    35    17    12   ar
    36     5     1   ar
    37    26    22   ar
    38    30    23    1
    39    20    21    1
    40    35    36    1
@<TRIPOS>MOLECULE
*****
 36 40 0 0 0
SMALL
GASTEIGER

@<TRIPOS>ATOM
      1 C         141.9042  142.0264  158.4024 C.ar    1  UNL1        0.1074
      2 C         141.6673  143.1893  157.4852 C.ar    1  UNL1        0.0588
      3 S         141.6473  144.4382  158.3158 S.2     1  UNL1       -0.0508
      4 C         141.8718  144.0470  159.7464 C.ar    1  UNL1        0.1646
      5 N         142.0306  142.5564  159.7999 N.ar    1  UNL1       -0.2224
      6 C         143.1909  138.6966  156.6682 C.ar    1  UNL1        0.2416
      7 N         143.0970  140.1369  157.0767 N.ar    1  UNL1       -0.2089
      8 C         141.9982  140.5862  157.9939 C.ar    1  UNL1        0.1026
      9 C         140.9935  139.5952  158.5024 C.ar    1  UNL1        0.0224
     10 C         141.0876  138.1549  158.0938 C.ar    1  UNL1        0.0239
     11 C         142.1863  137.7057  157.1767 C.ar    1  UNL1        0.1189
     12 N         142.2803  136.2655  156.7682 N.ar    1  UNL1       -0.2826
     13 C         143.1930  135.2368  157.3672 C.ar    1  UNL1        0.1826
     14 N         142.9550  133.9367  156.6582 N.ar    1  UNL1       -0.2280
     15 C         141.8950  134.1617  155.6208 C.ar    1  UNL1        0.0786
     16 C         141.3481  133.1288  154.6806 C.3     1  UNL1        0.0538
     17 C         141.4781  135.6011  155.6888 C.ar    1  UNL1        0.0963
     18 C         145.2381  139.2527  155.1683 C.3     1  UNL1        0.2543
     19 O         144.2896  138.2474  155.7512 O.3     1  UNL1       -0.4551
     20 N         141.9277  144.9823  160.9178 N.pl3   1  UNL1       -0.2786
     21 H         142.1383  145.9339  160.7784 H       1  UNL1        0.1555
     22 C         141.6628  144.4677  162.3017 C.ar    1  UNL1        0.1276
     23 C         140.3155  144.3182  162.9438 C.ar    1  UNL1        0.0244
     24 C         140.5187  143.7704  164.3253 C.ar    1  UNL1        0.0773
     25 N         141.9916  143.5813  164.5370 N.ar    1  UNL1       -0.1728
     26 N         142.6987  144.0123  163.2863 N.ar    1  UNL1       -0.2359
     27 C         139.3362  143.5145  165.2121 C.3     1  UNL1        0.0474
     28 C         137.9507  143.8064  164.7173 C.3     1  UNL1        0.0067
     29 C         137.7475  144.3542  163.3358 C.3     1  UNL1        0.0052
     30 C         138.9299  144.6101  162.4490 C.3     1  UNL1        0.0305
     31 C         144.1814  143.9915  163.0600 C.3     1  UNL1        0.1555
     32 C         144.9077  142.6824  162.9674 C.3     1  UNL1        0.1110
     33 C         144.8908  142.7789  161.4707 C.3     1  UNL1        0.0314
     34 C         144.9245  142.5859  164.4642 C.3     1  UNL1        0.0314
     35 O         145.6340  141.3732  162.8748 O.3     1  UNL1       -0.3848
     36 H         145.7803  141.1498  161.9423 H       1  UNL1        0.2103
@<TRIPOS>BOND
     1    18    19    1
     2    19     6    1
     3     6     7   ar
     4     7     8   ar
     5     8     1    1
     6     1     2   ar
     7     2     3   ar
     8     3     4   ar
     9     4    20    1
    10    20    22    1
    11    22    23   ar
    12    23    24   ar
    13    24    25   ar
    14    25    26   ar
    15    26    31    1
    16    31    32    1
    17    32    33    1
    18    32    34    1
    19    32    35    1
    20    24    27    1
    21    27    28    1
    22    28    29    1
    23    29    30    1
    24     4     5   ar
    25     8     9   ar
    26     9    10   ar
    27    10    11   ar
    28    11    12    1
    29    12    13   ar
    30    13    14   ar
    31    14    15   ar
    32    15    16    1
    33    15    17   ar
    34    11     6   ar
    35    17    12   ar
    36     5     1   ar
    37    26    22   ar
    38    30    23    1
    39    20    21    1
    40    35    36    1
@<TRIPOS>MOLECULE
*****
 36 40 0 0 0
SMALL
GASTEIGER

@<TRIPOS>ATOM
      1 C         141.9809  142.0385  162.8268 C.ar    1  UNL1        0.1074
      2 C         142.9689  142.5597  163.8278 C.ar    1  UNL1        0.0588
      3 S         142.9823  141.6211  164.9978 S.2     1  UNL1       -0.0508
      4 C         142.0026  140.5198  164.7198 C.ar    1  UNL1        0.1646
      5 N         141.3837  140.7778  163.3780 N.ar    1  UNL1       -0.2224
      6 C         139.9111  143.2447  159.6627 C.ar    1  UNL1        0.2416
      7 N         140.2435  142.6156  160.9832 N.ar    1  UNL1       -0.2089
      8 C         141.6484  142.6676  161.5063 C.ar    1  UNL1        0.1026
      9 C         142.7208  143.3488  160.7089 C.ar    1  UNL1        0.0224
     10 C         142.3883  143.9779  159.3883 C.ar    1  UNL1        0.0239
     11 C         140.9834  143.9259  158.8653 C.ar    1  UNL1        0.1189
     12 N         140.6510  144.5550  157.5449 N.ar    1  UNL1       -0.2826
     13 C         140.8523  143.9314  156.1955 C.ar    1  UNL1        0.1826
     14 N         140.3846  144.9091  155.1586 N.ar    1  UNL1       -0.2280
     15 C         139.8941  146.1370  155.8670 C.ar    1  UNL1        0.0786
     16 C         139.3369  147.3677  155.2151 C.3     1  UNL1        0.0538
     17 C         140.0588  145.9181  157.3419 C.ar    1  UNL1        0.0963
     18 C         138.1311  142.1817  158.0970 C.3     1  UNL1        0.2543
     19 O         138.5062  143.1926  159.1397 O.3     1  UNL1       -0.4551
     20 N         141.6957  139.3634  165.6247 N.pl3   1  UNL1       -0.2786
     21 H         142.0449  138.4674  165.4141 H       1  UNL1        0.1555
     22 C         140.8566  139.5724  166.8504 C.ar    1  UNL1        0.1276
     23 C         141.3393  140.0964  168.1704 C.ar    1  UNL1        0.0244
     24 C         140.1687  140.1419  169.1071 C.ar    1  UNL1        0.0773
     25 N         138.9625  139.6461  168.3660 N.ar    1  UNL1       -0.1728
     26 N         139.3876  139.2942  166.9712 N.ar    1  UNL1       -0.2359
     27 C         140.3522  140.6289  170.5139 C.3     1  UNL1        0.0474
     28 C         141.7065  141.0704  170.9840 C.3     1  UNL1        0.0067
     29 C         142.8772  141.0249  170.0473 C.3     1  UNL1        0.0052
     30 C         142.6936  140.5378  168.6405 C.3     1  UNL1        0.0305
     31 C         138.4997  138.7581  165.8876 C.3     1  UNL1        0.1555
     32 C         138.5295  139.3741  164.5203 C.3     1  UNL1        0.1110
     33 C         138.8911  138.0439  163.9289 C.3     1  UNL1        0.0314
     34 C         138.1679  140.7042  165.1117 C.3     1  UNL1        0.0314
     35 O         138.5592  139.9901  163.1529 O.3     1  UNL1       -0.3848
     36 H         138.7861  139.3118  162.4976 H       1  UNL1        0.2103
@<TRIPOS>BOND
     1    18    19    1
     2    19     6    1
     3     6     7   ar
     4     7     8   ar
     5     8     1    1
     6     1     2   ar
     7     2     3   ar
     8     3     4   ar
     9     4    20    1
    10    20    22    1
    11    22    23   ar
    12    23    24   ar
    13    24    25   ar
    14    25    26   ar
    15    26    31    1
    16    31    32    1
    17    32    33    1
    18    32    34    1
    19    32    35    1
    20    24    27    1
    21    27    28    1
    22    28    29    1
    23    29    30    1
    24     4     5   ar
    25     8     9   ar
    26     9    10   ar
    27    10    11   ar
    28    11    12    1
    29    12    13   ar
    30    13    14   ar
    31    14    15   ar
    32    15    16    1
    33    15    17   ar
    34    11     6   ar
    35    17    12   ar
    36     5     1   ar
    37    26    22   ar
    38    30    23    1
    39    20    21    1
    40    35    36    1
