@<TRIPOS>MOLECULE
*****
 37 41 0 0 0
SMALL
GASTEIGER

@<TRIPOS>ATOM
      1 N         139.8897  143.3492  153.3499 N.pl3   1  UNL1       -0.3380
      2 C         138.4641  142.9177  153.5268 C.2     1  UNL1        0.1482
      3 N         138.0639  142.1295  154.7386 N.2     1  UNL1       -0.2491
      4 C         136.6382  141.6980  154.9156 C.3     1  UNL1        0.1277
      5 C         135.9526  140.9180  155.9980 C.3     1  UNL1        0.1202
      6 N         134.5034  140.7927  155.6320 N.pl3   1  UNL1       -0.2758
      7 C         134.2933  141.4952  154.3234 C.3     1  UNL1        0.0968
      8 C         135.6127  142.0547  153.8807 C.3     1  UNL1        0.0573
      9 C         136.0129  142.8429  152.6688 C.3     1  UNL1        0.0688
     10 S         137.4386  143.2744  152.4919 S.3     1  UNL1       -0.0807
     11 H         140.5628  143.1151  154.0292 H       1  UNL1        0.1442
     12 H         140.1524  143.8666  152.5545 H       1  UNL1        0.1442
     13 C         137.5479  141.2696  156.0287 C.ar    1  UNL1        0.0282
     14 C         137.6687  142.1111  157.2646 C.ar    1  UNL1        0.0145
     15 C         138.5784  141.6826  158.3776 C.ar    1  UNL1        0.0505
     16 C         139.3673  140.4128  158.2548 C.ar    1  UNL1        0.0170
     17 C         139.2465  139.5713  157.0190 C.ar    1  UNL1        0.0306
     18 C         138.3368  139.9997  155.9058 C.ar    1  UNL1        0.1380
     19 F         138.2160  139.1583  154.6700 F       1  UNL1       -0.2044
     20 N         138.6992  142.5240  159.6135 N.am    1  UNL1       -0.2791
     21 C         138.1033  142.0490  160.9054 C.2     1  UNL1        0.2672
     22 O         137.3865  140.7326  160.9616 O.2     1  UNL1       -0.2682
     23 H         139.1696  143.3881  159.5766 H       1  UNL1        0.1552
     24 C         138.2241  142.8905  162.1414 C.ar    1  UNL1        0.1349
     25 C         137.6517  142.4031  163.4394 C.ar    1  UNL1        0.0261
     26 C         137.7725  143.2445  164.6753 C.ar    1  UNL1        0.0329
     27 C         138.4657  144.5732  164.6132 C.ar    1  UNL1        0.1592
     28 F         138.5865  145.4146  165.8491 F       1  UNL1       -0.2025
     29 C         139.0381  145.0606  163.3151 C.ar    1  UNL1        0.1285
     30 N         138.9173  144.2192  162.0792 N.ar    1  UNL1       -0.2369
     31 C         133.4492  140.0885  156.4338 C.ar    1  UNL1        0.2204
     32 N         133.8423  139.0463  157.4384 N.ar    1  UNL1       -0.2097
     33 C         132.7881  138.3421  158.2402 C.ar    1  UNL1        0.1330
     34 C         131.3408  138.6801  158.0373 C.ar    1  UNL1        0.1784
     35 F         130.2866  137.9759  158.8391 F       1  UNL1       -0.2009
     36 C         130.9477  139.7223  157.0327 C.ar    1  UNL1        0.1330
     37 N         132.0019  140.4265  156.2309 N.ar    1  UNL1       -0.2097
@<TRIPOS>BOND
     1     1     2    1
     2     2     3    2
     3     3     4    1
     4     4    13    1
     5    13    14   ar
     6    14    15   ar
     7    15    20    1
     8    20    21   am
     9    21    22    2
    10    21    24    1
    11    24    25   ar
    12    25    26   ar
    13    26    27   ar
    14    27    28    1
    15    27    29   ar
    16    29    30   ar
    17    15    16   ar
    18    16    17   ar
    19    17    18   ar
    20    18    19    1
    21     4     5    1
    22     5     6    1
    23     6    31    1
    24    31    32   ar
    25    32    33   ar
    26    33    34   ar
    27    34    35    1
    28    34    36   ar
    29    36    37   ar
    30     6     7    1
    31     8     7    1
    32     8     9    1
    33     9    10    1
    34    10     2    1
    35     8     4    1
    36    18    13   ar
    37    37    31   ar
    38    30    24   ar
    39     1    11    1
    40     1    12    1
    41    20    23    1
@<TRIPOS>MOLECULE
*****
 37 41 0 0 0
SMALL
GASTEIGER

@<TRIPOS>ATOM
      1 N         141.7679  145.5299  159.7417 N.pl3   1  UNL1       -0.3380
      2 C         141.1528  145.1493  161.0557 C.2     1  UNL1        0.1482
      3 N         141.7850  144.0817  161.8986 N.2     1  UNL1       -0.2491
      4 C         141.1698  143.7011  163.2126 C.3     1  UNL1        0.1277
      5 C         141.5648  142.6936  164.2514 C.3     1  UNL1        0.1202
      6 N         140.5614  142.7579  165.3646 N.pl3   1  UNL1       -0.2758
      7 C         139.5464  143.8052  165.0137 C.3     1  UNL1        0.0968
      8 C         139.9224  144.3881  163.6838 C.3     1  UNL1        0.0573
      9 C         139.2902  145.4556  162.8409 C.3     1  UNL1        0.0688
     10 S         139.9054  145.8363  161.5268 S.3     1  UNL1       -0.0807
     11 H         142.5867  145.0790  159.4324 H       1  UNL1        0.1442
     12 H         141.3530  146.2306  159.1884 H       1  UNL1        0.1442
     13 C         142.4115  142.9305  162.8743 C.ar    1  UNL1        0.0282
     14 C         142.3543  141.8208  161.8667 C.ar    1  UNL1        0.0145
     15 C         143.5959  141.0501  161.5284 C.ar    1  UNL1        0.0505
     16 C         144.8948  141.3892  162.1976 C.ar    1  UNL1        0.0170
     17 C         144.9521  142.4989  163.2053 C.ar    1  UNL1        0.0306
     18 C         143.7104  143.2696  163.5436 C.ar    1  UNL1        0.1380
     19 F         143.7676  144.3793  164.5512 F       1  UNL1       -0.2044
     20 N         143.5387  139.9405  160.5208 N.am    1  UNL1       -0.2791
     21 C         143.4172  140.2592  159.0601 C.2     1  UNL1        0.2672
     22 O         143.3528  141.6876  158.6070 O.2     1  UNL1       -0.2682
     23 H         143.5810  139.0029  160.8182 H       1  UNL1        0.1552
     24 C         143.3600  139.1494  158.0525 C.ar    1  UNL1        0.1349
     25 C         142.7182  137.8422  158.4121 C.ar    1  UNL1        0.0261
     26 C         142.6610  136.7325  157.4046 C.ar    1  UNL1        0.0329
     27 C         143.2456  136.9299  156.0374 C.ar    1  UNL1        0.1592
     28 F         143.1884  135.8201  155.0299 F       1  UNL1       -0.2025
     29 C         143.8874  138.2371  155.6778 C.ar    1  UNL1        0.1285
     30 N         143.9446  139.3469  156.6853 N.ar    1  UNL1       -0.2369
     31 C         140.5712  141.9218  166.6099 C.ar    1  UNL1        0.2204
     32 N         139.6223  140.7681  166.7462 N.ar    1  UNL1       -0.2097
     33 C         139.6322  139.9321  167.9916 C.ar    1  UNL1        0.1330
     34 C         140.5910  140.2497  169.1006 C.ar    1  UNL1        0.1784
     35 F         140.6008  139.4135  170.3459 F       1  UNL1       -0.2009
     36 C         141.5399  141.4033  168.9643 C.ar    1  UNL1        0.1330
     37 N         141.5300  142.2394  167.7189 N.ar    1  UNL1       -0.2097
@<TRIPOS>BOND
     1     1     2    1
     2     2     3    2
     3     3     4    1
     4     4    13    1
     5    13    14   ar
     6    14    15   ar
     7    15    20    1
     8    20    21   am
     9    21    22    2
    10    21    24    1
    11    24    25   ar
    12    25    26   ar
    13    26    27   ar
    14    27    28    1
    15    27    29   ar
    16    29    30   ar
    17    15    16   ar
    18    16    17   ar
    19    17    18   ar
    20    18    19    1
    21     4     5    1
    22     5     6    1
    23     6    31    1
    24    31    32   ar
    25    32    33   ar
    26    33    34   ar
    27    34    35    1
    28    34    36   ar
    29    36    37   ar
    30     6     7    1
    31     8     7    1
    32     8     9    1
    33     9    10    1
    34    10     2    1
    35     8     4    1
    36    18    13   ar
    37    37    31   ar
    38    30    24   ar
    39     1    11    1
    40     1    12    1
    41    20    23    1
@<TRIPOS>MOLECULE
*****
 37 41 0 0 0
SMALL
GASTEIGER

@<TRIPOS>ATOM
      1 N         137.4622  144.0607  153.0300 N.pl3   1  UNL1       -0.3380
      2 C         137.9188  143.7515  154.4249 C.2     1  UNL1        0.1482
      3 N         137.5348  142.4525  155.0691 N.2     1  UNL1       -0.2491
      4 C         137.9914  142.1432  156.4641 C.3     1  UNL1        0.1277
      5 C         137.7714  140.9542  157.3518 C.3     1  UNL1        0.1202
      6 N         138.4761  141.2092  158.6511 N.pl3   1  UNL1       -0.2758
      7 C         139.1315  142.5557  158.5665 C.3     1  UNL1        0.0968
      8 C         138.8320  143.1330  157.2148 C.3     1  UNL1        0.0573
      9 C         139.2160  144.4320  156.5707 C.3     1  UNL1        0.0688
     10 S         138.7594  144.7413  155.1757 S.3     1  UNL1       -0.0807
     11 H         136.9105  143.4111  152.5372 H       1  UNL1        0.1442
     12 H         137.7143  144.9134  152.6072 H       1  UNL1        0.1442
     13 C         137.1597  141.0617  155.8405 C.ar    1  UNL1        0.0282
     14 C         135.6739  141.0455  156.0461 C.ar    1  UNL1        0.0145
     15 C         134.8423  139.9640  155.4225 C.ar    1  UNL1        0.0505
     16 C         135.4965  138.8988  154.5934 C.ar    1  UNL1        0.0170
     17 C         136.9823  138.9151  154.3878 C.ar    1  UNL1        0.0306
     18 C         137.8139  139.9966  155.0114 C.ar    1  UNL1        0.1380
     19 F         139.2997  140.0128  154.8058 F       1  UNL1       -0.2044
     20 N         133.3567  139.9477  155.6280 N.am    1  UNL1       -0.2791
     21 C         132.7837  139.4455  156.9201 C.2     1  UNL1        0.2672
     22 O         133.6964  138.9596  158.0067 O.2     1  UNL1       -0.2682
     23 H         132.7575  140.2666  154.9149 H       1  UNL1        0.1552
     24 C         131.2979  139.4291  157.1256 C.ar    1  UNL1        0.1349
     25 C         130.6927  138.5179  158.1520 C.ar    1  UNL1        0.0261
     26 C         129.2069  138.5015  158.3575 C.ar    1  UNL1        0.0329
     27 C         128.3264  139.3964  157.5367 C.ar    1  UNL1        0.1592
     28 F         126.8406  139.3800  157.7423 F       1  UNL1       -0.2025
     29 C         128.9315  140.3077  156.5104 C.ar    1  UNL1        0.1285
     30 N         130.4173  140.3240  156.3048 N.ar    1  UNL1       -0.2369
     31 C         138.5180  140.2806  159.8285 C.ar    1  UNL1        0.2204
     32 N         139.2889  138.9967  159.7440 N.ar    1  UNL1       -0.2097
     33 C         139.3307  138.0682  160.9213 C.ar    1  UNL1        0.1330
     34 C         138.6017  138.4237  162.1831 C.ar    1  UNL1        0.1784
     35 F         138.6436  137.4951  163.3605 F       1  UNL1       -0.2009
     36 C         137.8308  139.7076  162.2676 C.ar    1  UNL1        0.1330
     37 N         137.7889  140.6361  161.0903 N.ar    1  UNL1       -0.2097
@<TRIPOS>BOND
     1     1     2    1
     2     2     3    2
     3     3     4    1
     4     4    13    1
     5    13    14   ar
     6    14    15   ar
     7    15    20    1
     8    20    21   am
     9    21    22    2
    10    21    24    1
    11    24    25   ar
    12    25    26   ar
    13    26    27   ar
    14    27    28    1
    15    27    29   ar
    16    29    30   ar
    17    15    16   ar
    18    16    17   ar
    19    17    18   ar
    20    18    19    1
    21     4     5    1
    22     5     6    1
    23     6    31    1
    24    31    32   ar
    25    32    33   ar
    26    33    34   ar
    27    34    35    1
    28    34    36   ar
    29    36    37   ar
    30     6     7    1
    31     8     7    1
    32     8     9    1
    33     9    10    1
    34    10     2    1
    35     8     4    1
    36    18    13   ar
    37    37    31   ar
    38    30    24   ar
    39     1    11    1
    40     1    12    1
    41    20    23    1
@<TRIPOS>MOLECULE
*****
 37 41 0 0 0
SMALL
GASTEIGER

@<TRIPOS>ATOM
      1 N         138.9545  140.4268  154.3290 N.pl3   1  UNL1       -0.3380
      2 C         139.4318  139.0049  154.3437 C.2     1  UNL1        0.1482
      3 N         140.3615  138.5369  155.4238 N.2     1  UNL1       -0.2491
      4 C         140.8388  137.1149  155.4384 C.3     1  UNL1        0.1277
      5 C         141.7512  136.3720  156.3689 C.3     1  UNL1        0.1202
      6 N         141.8627  134.9589  155.8784 N.pl3   1  UNL1       -0.2758
      7 C         141.0192  134.8284  154.6449 C.3     1  UNL1        0.0968
      8 C         140.3865  136.1609  154.3730 C.3     1  UNL1        0.0573
      9 C         139.4568  136.6289  153.2929 C.3     1  UNL1        0.0688
     10 S         138.9795  138.0509  153.2782 S.3     1  UNL1       -0.0807
     11 H         139.2515  141.0530  155.0283 H       1  UNL1        0.1442
     12 H         138.3444  140.7340  153.6201 H       1  UNL1        0.1442
     13 C         141.3737  137.9497  156.5642 C.ar    1  UNL1        0.0282
     14 C         140.5796  138.1023  157.8276 C.ar    1  UNL1        0.0145
     15 C         141.1145  138.9370  158.9533 C.ar    1  UNL1        0.0505
     16 C         142.4434  139.6190  158.8156 C.ar    1  UNL1        0.0170
     17 C         143.2374  139.4663  157.5522 C.ar    1  UNL1        0.0306
     18 C         142.7026  138.6316  156.4264 C.ar    1  UNL1        0.1380
     19 F         143.4966  138.4789  155.1630 F       1  UNL1       -0.2044
     20 N         140.3205  139.0898  160.2167 N.am    1  UNL1       -0.2791
     21 C         140.8060  138.4597  161.4884 C.2     1  UNL1        0.2672
     22 O         142.0854  137.6769  161.4967 O.2     1  UNL1       -0.2682
     23 H         139.4808  139.6036  160.2112 H       1  UNL1        0.1552
     24 C         140.0120  138.6124  162.7519 C.ar    1  UNL1        0.1349
     25 C         139.7829  137.4268  163.6417 C.ar    1  UNL1        0.0261
     26 C         138.9889  137.5795  164.9051 C.ar    1  UNL1        0.0329
     27 C         138.4240  138.9178  165.2787 C.ar    1  UNL1        0.1592
     28 F         137.6300  139.0705  166.5421 F       1  UNL1       -0.2025
     29 C         138.6530  140.1035  164.3889 C.ar    1  UNL1        0.1285
     30 N         139.4470  139.9508  163.1255 N.ar    1  UNL1       -0.2369
     31 C         142.6751  133.8677  156.5105 C.ar    1  UNL1        0.2204
     32 N         142.2634  132.4347  156.3456 N.ar    1  UNL1       -0.2097
     33 C         143.0758  131.3436  156.9777 C.ar    1  UNL1        0.1330
     34 C         144.2997  131.6854  157.7746 C.ar    1  UNL1        0.1784
     35 F         145.1121  130.5942  158.4067 F       1  UNL1       -0.2009
     36 C         144.7113  133.1184  157.9395 C.ar    1  UNL1        0.1330
     37 N         143.8990  134.2095  157.3074 N.ar    1  UNL1       -0.2097
@<TRIPOS>BOND
     1     1     2    1
     2     2     3    2
     3     3     4    1
     4     4    13    1
     5    13    14   ar
     6    14    15   ar
     7    15    20    1
     8    20    21   am
     9    21    22    2
    10    21    24    1
    11    24    25   ar
    12    25    26   ar
    13    26    27   ar
    14    27    28    1
    15    27    29   ar
    16    29    30   ar
    17    15    16   ar
    18    16    17   ar
    19    17    18   ar
    20    18    19    1
    21     4     5    1
    22     5     6    1
    23     6    31    1
    24    31    32   ar
    25    32    33   ar
    26    33    34   ar
    27    34    35    1
    28    34    36   ar
    29    36    37   ar
    30     6     7    1
    31     8     7    1
    32     8     9    1
    33     9    10    1
    34    10     2    1
    35     8     4    1
    36    18    13   ar
    37    37    31   ar
    38    30    24   ar
    39     1    11    1
    40     1    12    1
    41    20    23    1
@<TRIPOS>MOLECULE
*****
 37 41 0 0 0
SMALL
GASTEIGER

@<TRIPOS>ATOM
      1 N         144.0785  145.1433  162.4441 N.pl3   1  UNL1       -0.3380
      2 C         142.8983  144.5293  163.1371 C.2     1  UNL1        0.1482
      3 N         142.8260  143.0423  163.3199 N.2     1  UNL1       -0.2491
      4 C         141.6458  142.4283  164.0128 C.3     1  UNL1        0.1277
      5 C         141.3005  141.0048  164.3360 C.3     1  UNL1        0.1202
      6 N         139.9792  140.9981  165.0460 N.pl3   1  UNL1       -0.2758
      7 C         139.5079  142.4175  165.1616 C.3     1  UNL1        0.0968
      8 C         140.5380  143.3014  164.5231 C.3     1  UNL1        0.0573
      9 C         140.6103  144.7884  164.3403 C.3     1  UNL1        0.0688
     10 S         141.7905  145.4024  163.6474 S.3     1  UNL1       -0.0807
     11 H         144.8056  144.5703  162.1092 H       1  UNL1        0.1442
     12 H         144.1260  146.1193  162.3242 H       1  UNL1        0.1442
     13 C         142.6721  141.4331  163.5582 C.ar    1  UNL1        0.0282
     14 C         142.6491  140.9232  162.1478 C.ar    1  UNL1        0.0145
     15 C         143.6753  139.9281  161.6932 C.ar    1  UNL1        0.0505
     16 C         144.7245  139.4429  162.6492 C.ar    1  UNL1        0.0170
     17 C         144.7475  139.9528  164.0596 C.ar    1  UNL1        0.0306
     18 C         143.7213  140.9480  164.5142 C.ar    1  UNL1        0.1380
     19 F         143.7443  141.4579  165.9247 F       1  UNL1       -0.2044
     20 N         143.6523  139.4181  160.2828 N.am    1  UNL1       -0.2791
     21 C         142.7666  138.2642  159.9168 C.2     1  UNL1        0.2672
     22 O         141.9039  137.6202  160.9612 O.2     1  UNL1       -0.2682
     23 H         144.2186  139.8408  159.5973 H       1  UNL1        0.1552
     24 C         142.7437  137.7542  158.5063 C.ar    1  UNL1        0.1349
     25 C         142.3237  138.6610  157.3877 C.ar    1  UNL1        0.0261
     26 C         142.3007  138.1511  155.9772 C.ar    1  UNL1        0.0329
     27 C         142.6978  136.7344  155.6853 C.ar    1  UNL1        0.1592
     28 F         142.6748  136.2245  154.2749 F       1  UNL1       -0.2025
     29 C         143.1178  135.8276  156.8040 C.ar    1  UNL1        0.1285
     30 N         143.1408  136.3375  158.2144 N.ar    1  UNL1       -0.2369
     31 C         139.2560  139.7850  165.5516 C.ar    1  UNL1        0.2204
     32 N         138.4478  139.8651  166.8126 N.ar    1  UNL1       -0.2097
     33 C         137.7247  138.6520  167.3182 C.ar    1  UNL1        0.1330
     34 C         137.8098  137.3590  166.5627 C.ar    1  UNL1        0.1784
     35 F         137.0867  136.1459  167.0684 F       1  UNL1       -0.2009
     36 C         138.6181  137.2789  165.3017 C.ar    1  UNL1        0.1330
     37 N         139.3412  138.4920  164.7961 N.ar    1  UNL1       -0.2097
@<TRIPOS>BOND
     1     1     2    1
     2     2     3    2
     3     3     4    1
     4     4    13    1
     5    13    14   ar
     6    14    15   ar
     7    15    20    1
     8    20    21   am
     9    21    22    2
    10    21    24    1
    11    24    25   ar
    12    25    26   ar
    13    26    27   ar
    14    27    28    1
    15    27    29   ar
    16    29    30   ar
    17    15    16   ar
    18    16    17   ar
    19    17    18   ar
    20    18    19    1
    21     4     5    1
    22     5     6    1
    23     6    31    1
    24    31    32   ar
    25    32    33   ar
    26    33    34   ar
    27    34    35    1
    28    34    36   ar
    29    36    37   ar
    30     6     7    1
    31     8     7    1
    32     8     9    1
    33     9    10    1
    34    10     2    1
    35     8     4    1
    36    18    13   ar
    37    37    31   ar
    38    30    24   ar
    39     1    11    1
    40     1    12    1
    41    20    23    1
@<TRIPOS>MOLECULE
*****
 37 41 0 0 0
SMALL
GASTEIGER

@<TRIPOS>ATOM
      1 N         139.6248  145.1071  153.7554 N.pl3   1  UNL1       -0.3380
      2 C         139.7245  144.9318  155.2418 C.2     1  UNL1        0.1482
      3 N         139.1003  143.7371  155.8997 N.2     1  UNL1       -0.2491
      4 C         139.2000  143.5618  157.3861 C.3     1  UNL1        0.1277
      5 C         138.6883  142.4943  158.3074 C.3     1  UNL1        0.1202
      6 N         139.0960  142.8542  159.7053 N.pl3   1  UNL1       -0.2758
      7 C         139.8597  144.1440  159.6480 C.3     1  UNL1        0.0968
      8 C         139.9240  144.5813  158.2146 C.3     1  UNL1        0.0573
      9 C         140.5481  145.7761  157.5567 C.3     1  UNL1        0.0688
     10 S         140.4484  145.9513  156.0704 S.3     1  UNL1       -0.0807
     11 H         139.1496  144.4380  153.2116 H       1  UNL1        0.1442
     12 H         140.0345  145.8913  153.3237 H       1  UNL1        0.1442
     13 C         138.4484  142.4651  156.6915 C.ar    1  UNL1        0.0282
     14 C         136.9615  142.5660  156.5214 C.ar    1  UNL1        0.0145
     15 C         136.2099  141.4693  155.8269 C.ar    1  UNL1        0.0505
     16 C         136.9452  140.2717  155.3023 C.ar    1  UNL1        0.0170
     17 C         138.4321  140.1708  155.4724 C.ar    1  UNL1        0.0306
     18 C         139.1838  141.2675  156.1670 C.ar    1  UNL1        0.1380
     19 F         140.6707  141.1666  156.3370 F       1  UNL1       -0.2044
     20 N         134.7230  141.5702  155.6568 N.am    1  UNL1       -0.2791
     21 C         133.8227  140.5706  156.3202 C.2     1  UNL1        0.2672
     22 O         134.4093  139.4701  157.1537 O.2     1  UNL1       -0.2682
     23 H         134.3380  142.2925  155.1098 H       1  UNL1        0.1552
     24 C         132.3358  140.6714  156.1501 C.ar    1  UNL1        0.1349
     25 C         131.4278  139.7805  156.9451 C.ar    1  UNL1        0.0261
     26 C         129.9409  139.8814  156.7750 C.ar    1  UNL1        0.0329
     27 C         129.3619  140.8731  155.8101 C.ar    1  UNL1        0.1592
     28 F         127.8750  140.9740  155.6400 F       1  UNL1       -0.2025
     29 C         130.2699  141.7640  155.0151 C.ar    1  UNL1        0.1285
     30 N         131.7568  141.6632  155.1852 N.ar    1  UNL1       -0.2369
     31 C         138.7932  142.0631  160.9434 C.ar    1  UNL1        0.2204
     32 N         137.7007  142.5087  161.8696 N.ar    1  UNL1       -0.2097
     33 C         137.3980  141.7177  163.1076 C.ar    1  UNL1        0.1330
     34 C         138.1877  140.4811  163.4193 C.ar    1  UNL1        0.1784
     35 F         137.8849  139.6900  164.6573 F       1  UNL1       -0.2009
     36 C         139.2801  140.0355  162.4930 C.ar    1  UNL1        0.1330
     37 N         139.5829  140.8265  161.2551 N.ar    1  UNL1       -0.2097
@<TRIPOS>BOND
     1     1     2    1
     2     2     3    2
     3     3     4    1
     4     4    13    1
     5    13    14   ar
     6    14    15   ar
     7    15    20    1
     8    20    21   am
     9    21    22    2
    10    21    24    1
    11    24    25   ar
    12    25    26   ar
    13    26    27   ar
    14    27    28    1
    15    27    29   ar
    16    29    30   ar
    17    15    16   ar
    18    16    17   ar
    19    17    18   ar
    20    18    19    1
    21     4     5    1
    22     5     6    1
    23     6    31    1
    24    31    32   ar
    25    32    33   ar
    26    33    34   ar
    27    34    35    1
    28    34    36   ar
    29    36    37   ar
    30     6     7    1
    31     8     7    1
    32     8     9    1
    33     9    10    1
    34    10     2    1
    35     8     4    1
    36    18    13   ar
    37    37    31   ar
    38    30    24   ar
    39     1    11    1
    40     1    12    1
    41    20    23    1
@<TRIPOS>MOLECULE
*****
 37 41 0 0 0
SMALL
GASTEIGER

@<TRIPOS>ATOM
      1 N         143.0061  144.2135  158.0995 N.pl3   1  UNL1       -0.3380
      2 C         142.1153  144.0874  159.2998 C.2     1  UNL1        0.1482
      3 N         142.1892  142.8630  160.1632 N.2     1  UNL1       -0.2491
      4 C         141.2984  142.7369  161.3635 C.3     1  UNL1        0.1277
      5 C         141.1480  141.6559  162.3926 C.3     1  UNL1        0.1202
      6 N         140.0904  142.0861  163.3654 N.pl3   1  UNL1       -0.2758
      7 C         139.5872  143.4329  162.9376 C.3     1  UNL1        0.0968
      8 C         140.3338  143.8351  161.7003 C.3     1  UNL1        0.0573
      9 C         140.2600  145.0594  160.8369 C.3     1  UNL1        0.0688
     10 S         141.1507  145.1855  159.6366 S.3     1  UNL1       -0.0807
     11 H         143.6392  143.4927  157.8784 H       1  UNL1        0.1442
     12 H         142.9576  145.0171  157.5328 H       1  UNL1        0.1442
     13 C         142.2085  141.5631  161.1531 C.ar    1  UNL1        0.0282
     14 C         141.7675  140.4172  160.2915 C.ar    1  UNL1        0.0145
     15 C         142.6776  139.2435  160.0811 C.ar    1  UNL1        0.0505
     16 C         144.0286  139.2158  160.7323 C.ar    1  UNL1        0.0170
     17 C         144.4696  140.3618  161.5938 C.ar    1  UNL1        0.0306
     18 C         143.5595  141.5355  161.8042 C.ar    1  UNL1        0.1380
     19 F         144.0005  142.6815  162.6658 F       1  UNL1       -0.2044
     20 N         142.2367  138.0975  159.2196 N.am    1  UNL1       -0.2791
     21 C         142.7807  137.9516  157.8294 C.2     1  UNL1        0.2672
     22 O         143.7656  138.9517  157.3007 O.2     1  UNL1       -0.2682
     23 H         141.5902  137.4411  159.5666 H       1  UNL1        0.1552
     24 C         142.3397  136.8055  156.9679 C.ar    1  UNL1        0.1349
     25 C         143.0866  135.5053  157.0094 C.ar    1  UNL1        0.0261
     26 C         142.6457  134.3593  156.1480 C.ar    1  UNL1        0.0329
     27 C         141.4580  134.5134  155.2449 C.ar    1  UNL1        0.1592
     28 F         141.0171  133.3674  154.3834 F       1  UNL1       -0.2025
     29 C         140.7111  135.8137  155.2033 C.ar    1  UNL1        0.1285
     30 N         141.1520  136.9597  156.0648 N.ar    1  UNL1       -0.2369
     31 C         139.6187  141.3064  164.5569 C.ar    1  UNL1        0.2204
     32 N         140.2153  141.5675  165.9081 N.ar    1  UNL1       -0.2097
     33 C         139.7437  140.7878  167.0996 C.ar    1  UNL1        0.1330
     34 C         138.6754  139.7470  166.9398 C.ar    1  UNL1        0.1784
     35 F         138.2037  138.9673  168.1313 F       1  UNL1       -0.2009
     36 C         138.0788  139.4859  165.5886 C.ar    1  UNL1        0.1330
     37 N         138.5504  140.2656  164.3971 N.ar    1  UNL1       -0.2097
@<TRIPOS>BOND
     1     1     2    1
     2     2     3    2
     3     3     4    1
     4     4    13    1
     5    13    14   ar
     6    14    15   ar
     7    15    20    1
     8    20    21   am
     9    21    22    2
    10    21    24    1
    11    24    25   ar
    12    25    26   ar
    13    26    27   ar
    14    27    28    1
    15    27    29   ar
    16    29    30   ar
    17    15    16   ar
    18    16    17   ar
    19    17    18   ar
    20    18    19    1
    21     4     5    1
    22     5     6    1
    23     6    31    1
    24    31    32   ar
    25    32    33   ar
    26    33    34   ar
    27    34    35    1
    28    34    36   ar
    29    36    37   ar
    30     6     7    1
    31     8     7    1
    32     8     9    1
    33     9    10    1
    34    10     2    1
    35     8     4    1
    36    18    13   ar
    37    37    31   ar
    38    30    24   ar
    39     1    11    1
    40     1    12    1
    41    20    23    1
@<TRIPOS>MOLECULE
*****
 37 41 0 0 0
SMALL
GASTEIGER

@<TRIPOS>ATOM
      1 N         142.1055  145.0811  160.2787 N.pl3   1  UNL1       -0.3380
      2 C         141.1207  144.4095  161.1893 C.2     1  UNL1        0.1482
      3 N         141.3891  143.0219  161.6915 N.2     1  UNL1       -0.2491
      4 C         140.4043  142.3503  162.6021 C.3     1  UNL1        0.1277
      5 C         140.3982  140.9982  163.2516 C.3     1  UNL1        0.1202
      6 N         139.1413  140.8787  164.0615 N.pl3   1  UNL1       -0.2758
      7 C         138.3706  142.1569  163.9124 C.3     1  UNL1        0.0968
      8 C         139.1512  143.0664  163.0105 C.3     1  UNL1        0.0573
      9 C         138.8828  144.4541  162.5083 C.3     1  UNL1        0.0688
     10 S         139.8676  145.1256  161.5977 S.3     1  UNL1       -0.0807
     11 H         142.9280  144.6111  160.0106 H       1  UNL1        0.1442
     12 H         141.9294  145.9919  159.9491 H       1  UNL1        0.1442
     13 C         141.6074  141.5137  162.2812 C.ar    1  UNL1        0.0282
     14 C         141.5429  140.4992  161.1782 C.ar    1  UNL1        0.0145
     15 C         142.7460  139.6627  160.8573 C.ar    1  UNL1        0.0505
     16 C         144.0135  139.8407  161.6395 C.ar    1  UNL1        0.0170
     17 C         144.0779  140.8552  162.7426 C.ar    1  UNL1        0.0306
     18 C         142.8748  141.6918  163.0634 C.ar    1  UNL1        0.1380
     19 F         142.9393  142.7062  164.1665 F       1  UNL1       -0.2044
     20 N         142.6816  138.6483  159.7544 N.am    1  UNL1       -0.2791
     21 C         142.8376  139.0815  158.3268 C.2     1  UNL1        0.2672
     22 O         143.0580  140.5292  158.0022 O.2     1  UNL1       -0.2682
     23 H         142.5369  137.6981  159.9674 H       1  UNL1        0.1552
     24 C         142.7732  138.0670  157.2238 C.ar    1  UNL1        0.1349
     25 C         141.5097  137.2932  156.9893 C.ar    1  UNL1        0.0261
     26 C         141.4453  136.2787  155.8863 C.ar    1  UNL1        0.0329
     27 C         142.6443  136.0379  155.0178 C.ar    1  UNL1        0.1592
     28 F         142.5799  135.0234  153.9148 F       1  UNL1       -0.2025
     29 C         143.9078  136.8117  155.2523 C.ar    1  UNL1        0.1285
     30 N         143.9722  137.8262  156.3553 N.ar    1  UNL1       -0.2369
     31 C         138.7276  139.6897  164.8772 C.ar    1  UNL1        0.2204
     32 N         139.0081  138.3034  164.3779 N.ar    1  UNL1       -0.2097
     33 C         138.5945  137.1145  165.1937 C.ar    1  UNL1        0.1330
     34 C         137.9003  137.3120  166.5086 C.ar    1  UNL1        0.1784
     35 F         137.4867  136.1230  167.3243 F       1  UNL1       -0.2009
     36 C         137.6198  138.6983  167.0079 C.ar    1  UNL1        0.1330
     37 N         138.0335  139.8872  166.1922 N.ar    1  UNL1       -0.2097
@<TRIPOS>BOND
     1     1     2    1
     2     2     3    2
     3     3     4    1
     4     4    13    1
     5    13    14   ar
     6    14    15   ar
     7    15    20    1
     8    20    21   am
     9    21    22    2
    10    21    24    1
    11    24    25   ar
    12    25    26   ar
    13    26    27   ar
    14    27    28    1
    15    27    29   ar
    16    29    30   ar
    17    15    16   ar
    18    16    17   ar
    19    17    18   ar
    20    18    19    1
    21     4     5    1
    22     5     6    1
    23     6    31    1
    24    31    32   ar
    25    32    33   ar
    26    33    34   ar
    27    34    35    1
    28    34    36   ar
    29    36    37   ar
    30     6     7    1
    31     8     7    1
    32     8     9    1
    33     9    10    1
    34    10     2    1
    35     8     4    1
    36    18    13   ar
    37    37    31   ar
    38    30    24   ar
    39     1    11    1
    40     1    12    1
    41    20    23    1
@<TRIPOS>MOLECULE
*****
 37 41 0 0 0
SMALL
GASTEIGER

@<TRIPOS>ATOM
      1 N         139.8065  137.7591  161.4367 N.pl3   1  UNL1       -0.3380
      2 C         139.7729  138.2245  162.8623 C.2     1  UNL1        0.1482
      3 N         140.7989  139.2004  163.3571 N.2     1  UNL1       -0.2491
      4 C         140.7652  139.6658  164.7826 C.3     1  UNL1        0.1277
      5 C         141.6376  140.6151  165.5494 C.3     1  UNL1        0.1202
      6 N         141.1171  140.6911  166.9542 N.pl3   1  UNL1       -0.2758
      7 C         139.9231  139.7889  167.0555 C.3     1  UNL1        0.0968
      8 C         139.7056  139.1552  165.7135 C.3     1  UNL1        0.0573
      9 C         138.6796  138.1793  165.2187 C.3     1  UNL1        0.0688
     10 S         138.7133  137.7139  163.7931 S.3     1  UNL1       -0.0807
     11 H         140.5020  138.0942  160.8258 H       1  UNL1        0.1442
     12 H         139.1331  137.1185  161.1120 H       1  UNL1        0.1442
     13 C         141.8790  140.2606  163.9728 C.ar    1  UNL1        0.0282
     14 C         141.5843  141.3318  162.9650 C.ar    1  UNL1        0.0145
     15 C         142.6981  141.9266  162.1553 C.ar    1  UNL1        0.0505
     16 C         144.1066  141.4501  162.3533 C.ar    1  UNL1        0.0170
     17 C         144.4013  140.3789  163.3610 C.ar    1  UNL1        0.0306
     18 C         143.2875  139.7841  164.1709 C.ar    1  UNL1        0.1380
     19 F         143.5822  138.7129  165.1786 F       1  UNL1       -0.2044
     20 N         142.4034  142.9978  161.1475 N.am    1  UNL1       -0.2791
     21 C         141.7096  142.6497  159.8640 C.2     1  UNL1        0.2672
     22 O         141.3105  141.2304  159.5882 O.2     1  UNL1       -0.2682
     23 H         142.6654  143.9294  161.3285 H       1  UNL1        0.1552
     24 C         141.4150  143.7210  158.8562 C.ar    1  UNL1        0.1349
     25 C         140.2170  143.6001  157.9616 C.ar    1  UNL1        0.0261
     26 C         139.9224  144.6713  156.9538 C.ar    1  UNL1        0.0329
     27 C         140.8256  145.8634  156.8406 C.ar    1  UNL1        0.1592
     28 F         140.5310  146.9346  155.8328 F       1  UNL1       -0.2025
     29 C         142.0236  145.9844  157.7352 C.ar    1  UNL1        0.1285
     30 N         142.3183  144.9131  158.7430 N.ar    1  UNL1       -0.2369
     31 C         141.6901  141.5233  168.0629 C.ar    1  UNL1        0.2204
     32 N         143.1259  141.3543  168.4625 N.ar    1  UNL1       -0.2097
     33 C         143.6988  142.1865  169.5712 C.ar    1  UNL1        0.1330
     34 C         142.8358  143.1876  170.2804 C.ar    1  UNL1        0.1784
     35 F         143.4087  144.0198  171.3891 F       1  UNL1       -0.2009
     36 C         141.3999  143.3566  169.8808 C.ar    1  UNL1        0.1330
     37 N         140.8270  142.5244  168.7721 N.ar    1  UNL1       -0.2097
@<TRIPOS>BOND
     1     1     2    1
     2     2     3    2
     3     3     4    1
     4     4    13    1
     5    13    14   ar
     6    14    15   ar
     7    15    20    1
     8    20    21   am
     9    21    22    2
    10    21    24    1
    11    24    25   ar
    12    25    26   ar
    13    26    27   ar
    14    27    28    1
    15    27    29   ar
    16    29    30   ar
    17    15    16   ar
    18    16    17   ar
    19    17    18   ar
    20    18    19    1
    21     4     5    1
    22     5     6    1
    23     6    31    1
    24    31    32   ar
    25    32    33   ar
    26    33    34   ar
    27    34    35    1
    28    34    36   ar
    29    36    37   ar
    30     6     7    1
    31     8     7    1
    32     8     9    1
    33     9    10    1
    34    10     2    1
    35     8     4    1
    36    18    13   ar
    37    37    31   ar
    38    30    24   ar
    39     1    11    1
    40     1    12    1
    41    20    23    1
