@<TRIPOS>MOLECULE
*****
 34 38 0 0 0
SMALL
GASTEIGER

@<TRIPOS>ATOM
      1 C         138.1395  140.7771  158.4599 C.3     1  UNL1        0.0730
      2 N         138.3644  140.3320  159.8746 N.3     1  UNL1       -0.2720
      3 C         138.9408  138.9571  160.0403 C.3     1  UNL1        0.0768
      4 C         139.2783  138.2312  161.3090 C.3     1  UNL1        0.0433
      5 C         139.1227  138.7009  162.7249 C.ar    1  UNL1       -0.0247
      6 C         139.5832  137.6596  163.7015 C.ar    1  UNL1       -0.0045
      7 C         139.5122  137.9298  165.1752 C.ar    1  UNL1        0.0013
      8 C         138.9807  139.2414  165.6725 C.ar    1  UNL1        0.0206
      9 C         138.5202  140.2828  164.6959 C.ar    1  UNL1       -0.0029
     10 C         138.5912  140.0125  163.2222 C.ar    1  UNL1       -0.0246
     11 C         138.0841  141.1784  162.4262 C.3     1  UNL1        0.0433
     12 C         137.9831  141.3205  160.9363 C.3     1  UNL1        0.0768
     13 C         138.9097  139.5117  167.1462 C.ar    1  UNL1        0.1227
     14 C         139.8553  140.3714  167.9315 C.ar    1  UNL1        0.0580
     15 C         139.4106  140.3607  169.3640 C.ar    1  UNL1        0.1548
     16 C         140.0706  141.0886  170.4975 C.3     1  UNL1        0.0754
     17 O         138.1902  139.4945  169.4641 O.2     1  UNL1       -0.3578
     18 N         137.8805  138.9697  168.0934 N.ar    1  UNL1       -0.0774
     19 C         139.3109  141.0218  157.5555 C.3     1  UNL1        0.0294
     20 C         139.8025  142.4205  157.3267 C.3     1  UNL1        0.0666
     21 S         141.0322  142.9082  158.0337 S.3     1  UNL1       -0.0756
     22 C         141.6364  141.8745  161.7259 C.ar    1  UNL1        0.1668
     23 N         141.0100  143.2261  161.9020 N.ar    1  UNL1       -0.1282
     24 N         140.7074  143.7777  160.5404 N.ar    1  UNL1       -0.1221
     25 C         141.1469  142.7672  159.5227 C.ar    1  UNL1        0.1932
     26 N         141.7210  141.5910  160.2553 N.ar    1  UNL1       -0.2884
     27 C         142.2813  140.3491  159.6277 C.3     1  UNL1        0.1340
     28 C         143.4801  138.2408  166.1300 C.3     1  UNL1        0.0310
     29 C         143.0192  139.1492  165.0289 C.ar    1  UNL1       -0.0218
     30 C         142.4808  140.5106  165.3558 C.ar    1  UNL1       -0.0042
     31 C         142.0198  141.4190  164.2548 C.ar    1  UNL1        0.0027
     32 C         142.0973  140.9661  162.8268 C.ar    1  UNL1        0.0359
     33 C         142.6358  139.6048  162.5001 C.ar    1  UNL1        0.0027
     34 C         143.0967  138.6963  163.6011 C.ar    1  UNL1       -0.0042
@<TRIPOS>BOND
     1    28    29    1
     2    29    30   ar
     3    30    31   ar
     4    31    32   ar
     5    32    22    1
     6    22    23   ar
     7    23    24   ar
     8    24    25   ar
     9    25    21    1
    10    21    20    1
    11    20    19    1
    12    19     1    1
    13     1     2    1
    14     2     3    1
    15     3     4    1
    16     4     5    1
    17     5     6   ar
    18     6     7   ar
    19     7     8   ar
    20     8    13    1
    21    13    14   ar
    22    14    15   ar
    23    15    16    1
    24    15    17   ar
    25    17    18   ar
    26     8     9   ar
    27     9    10   ar
    28    10    11    1
    29    11    12    1
    30    25    26   ar
    31    26    27    1
    32    32    33   ar
    33    33    34   ar
    34    34    29   ar
    35    26    22   ar
    36    12     2    1
    37    10     5   ar
    38    18    13   ar
@<TRIPOS>MOLECULE
*****
 34 38 0 0 0
SMALL
GASTEIGER

@<TRIPOS>ATOM
      1 C         141.6600  145.3527  159.1020 C.3     1  UNL1        0.0730
      2 N         141.3186  144.9783  160.5138 N.3     1  UNL1       -0.2720
      3 C         140.0737  145.6037  161.0700 C.3     1  UNL1        0.0768
      4 C         139.4699  145.4332  162.4326 C.3     1  UNL1        0.0433
      5 C         139.9618  144.5954  163.5753 C.ar    1  UNL1       -0.0247
      6 C         139.0574  144.7084  164.7667 C.ar    1  UNL1       -0.0045
      7 C         139.3703  143.9469  166.0206 C.ar    1  UNL1        0.0013
      8 C         140.5874  143.0725  166.0833 C.ar    1  UNL1        0.0206
      9 C         141.4918  142.9595  164.8918 C.ar    1  UNL1       -0.0029
     10 C         141.1790  143.7210  163.6379 C.ar    1  UNL1       -0.0246
     11 C         142.2049  143.4685  162.5731 C.3     1  UNL1        0.0433
     12 C         142.2669  144.0281  161.1827 C.3     1  UNL1        0.0768
     13 C         140.9002  142.3111  167.3372 C.ar    1  UNL1        0.1227
     14 C         141.7005  141.0454  167.4237 C.ar    1  UNL1        0.0580
     15 C         141.7626  140.6338  168.8647 C.ar    1  UNL1        0.1548
     16 C         142.4636  139.4233  169.4065 C.3     1  UNL1        0.0754
     17 O         141.0006  141.6450  169.6689 O.2     1  UNL1       -0.3578
     18 N         140.4676  142.6817  168.7249 N.ar    1  UNL1       -0.0774
     19 C         142.2614  144.3335  158.1803 C.3     1  UNL1        0.0294
     20 C         141.3995  143.6330  157.1720 C.3     1  UNL1        0.0666
     21 S         140.6866  142.3671  157.5450 S.3     1  UNL1       -0.0756
     22 C         139.0792  141.7518  161.0240 C.ar    1  UNL1        0.1668
     23 N         138.0951  142.7060  160.4146 N.ar    1  UNL1       -0.1282
     24 N         138.5775  143.0526  159.0373 N.ar    1  UNL1       -0.1221
     25 C         139.8597  142.3127  158.7953 C.ar    1  UNL1        0.1932
     26 N         140.1697  141.5088  160.0232 N.ar    1  UNL1       -0.2884
     27 C         141.3612  140.6182  160.2164 C.3     1  UNL1        0.1340
     28 C         138.7168  139.3325  166.5026 C.3     1  UNL1        0.0310
     29 C         138.8074  139.9374  165.1329 C.ar    1  UNL1       -0.0218
     30 C         137.7452  140.8849  164.6598 C.ar    1  UNL1       -0.0042
     31 C         137.8358  141.4898  163.2901 C.ar    1  UNL1        0.0027
     32 C         138.9886  141.1470  162.3936 C.ar    1  UNL1        0.0359
     33 C         140.0507  140.1995  162.8668 C.ar    1  UNL1        0.0027
     34 C         139.9601  139.5946  164.2365 C.ar    1  UNL1       -0.0042
@<TRIPOS>BOND
     1    28    29    1
     2    29    30   ar
     3    30    31   ar
     4    31    32   ar
     5    32    22    1
     6    22    23   ar
     7    23    24   ar
     8    24    25   ar
     9    25    21    1
    10    21    20    1
    11    20    19    1
    12    19     1    1
    13     1     2    1
    14     2     3    1
    15     3     4    1
    16     4     5    1
    17     5     6   ar
    18     6     7   ar
    19     7     8   ar
    20     8    13    1
    21    13    14   ar
    22    14    15   ar
    23    15    16    1
    24    15    17   ar
    25    17    18   ar
    26     8     9   ar
    27     9    10   ar
    28    10    11    1
    29    11    12    1
    30    25    26   ar
    31    26    27    1
    32    32    33   ar
    33    33    34   ar
    34    34    29   ar
    35    26    22   ar
    36    12     2    1
    37    10     5   ar
    38    18    13   ar
@<TRIPOS>MOLECULE
*****
 34 38 0 0 0
SMALL
GASTEIGER

@<TRIPOS>ATOM
      1 C         138.1676  141.9667  159.6469 C.3     1  UNL1        0.0730
      2 N         138.3422  141.4458  161.0427 N.3     1  UNL1       -0.2720
      3 C         138.1085  139.9749  161.2223 C.3     1  UNL1        0.0768
      4 C         138.2023  139.1596  162.4780 C.3     1  UNL1        0.0433
      5 C         138.5528  139.6137  163.8638 C.ar    1  UNL1       -0.0247
      6 C         138.5323  138.4717  164.8363 C.ar    1  UNL1       -0.0045
      7 C         138.8551  138.7113  166.2814 C.ar    1  UNL1        0.0013
      8 C         139.1984  140.0929  166.7542 C.ar    1  UNL1        0.0206
      9 C         139.2189  141.2348  165.7818 C.ar    1  UNL1       -0.0029
     10 C         138.8961  140.9952  164.3366 C.ar    1  UNL1       -0.0246
     11 C         138.9738  142.2639  163.5401 C.3     1  UNL1        0.0433
     12 C         138.7272  142.4643  162.0742 C.3     1  UNL1        0.0768
     13 C         139.5212  140.3325  168.1993 C.ar    1  UNL1        0.1227
     14 C         140.5985  141.2345  168.7243 C.ar    1  UNL1        0.0580
     15 C         140.5665  141.1716  170.2226 C.ar    1  UNL1        0.1548
     16 C         141.4725  141.9186  171.1559 C.3     1  UNL1        0.0754
     17 O         139.4694  140.2306  170.6237 O.2     1  UNL1       -0.3578
     18 N         138.8234  139.7119  169.3732 N.ar    1  UNL1       -0.0774
     19 C         139.2728  142.7404  158.9914 C.3     1  UNL1        0.0294
     20 C         140.0891  142.1071  157.9039 C.3     1  UNL1        0.0666
     21 S         141.3916  141.4410  158.2350 S.3     1  UNL1       -0.0756
     22 C         141.7900  139.5375  161.5941 C.ar    1  UNL1        0.1668
     23 N         141.3870  138.4225  160.6751 N.ar    1  UNL1       -0.1282
     24 N         141.1888  138.9999  159.3049 N.ar    1  UNL1       -0.1221
     25 C         141.4692  140.4717  159.3771 C.ar    1  UNL1        0.1932
     26 N         141.8407  140.8039  160.7918 N.ar    1  UNL1       -0.2884
     27 C         142.2000  142.1639  161.3129 C.3     1  UNL1        0.1340
     28 C         142.9882  139.0221  167.4505 C.3     1  UNL1        0.0310
     29 C         142.6887  139.1510  165.9864 C.ar    1  UNL1       -0.0218
     30 C         142.2941  137.9411  165.1923 C.ar    1  UNL1       -0.0042
     31 C         141.9945  138.0700  163.7282 C.ar    1  UNL1        0.0027
     32 C         142.0895  139.4087  163.0581 C.ar    1  UNL1        0.0359
     33 C         142.4841  140.6184  163.8523 C.ar    1  UNL1        0.0027
     34 C         142.7837  140.4896  165.3164 C.ar    1  UNL1       -0.0042
@<TRIPOS>BOND
     1    28    29    1
     2    29    30   ar
     3    30    31   ar
     4    31    32   ar
     5    32    22    1
     6    22    23   ar
     7    23    24   ar
     8    24    25   ar
     9    25    21    1
    10    21    20    1
    11    20    19    1
    12    19     1    1
    13     1     2    1
    14     2     3    1
    15     3     4    1
    16     4     5    1
    17     5     6   ar
    18     6     7   ar
    19     7     8   ar
    20     8    13    1
    21    13    14   ar
    22    14    15   ar
    23    15    16    1
    24    15    17   ar
    25    17    18   ar
    26     8     9   ar
    27     9    10   ar
    28    10    11    1
    29    11    12    1
    30    25    26   ar
    31    26    27    1
    32    32    33   ar
    33    33    34   ar
    34    34    29   ar
    35    26    22   ar
    36    12     2    1
    37    10     5   ar
    38    18    13   ar
@<TRIPOS>MOLECULE
*****
 34 38 0 0 0
SMALL
GASTEIGER

@<TRIPOS>ATOM
      1 C         139.9901  145.8131  160.9595 C.3     1  UNL1        0.0730
      2 N         139.8922  144.7751  162.0379 N.3     1  UNL1       -0.2720
      3 C         138.9211  143.6607  161.7823 C.3     1  UNL1        0.0768
      4 C         138.5964  142.4847  162.6550 C.3     1  UNL1        0.0433
      5 C         139.1624  142.1327  163.9987 C.ar    1  UNL1       -0.0247
      6 C         138.5623  140.8652  164.5311 C.ar    1  UNL1       -0.0045
      7 C         138.9928  140.3347  165.8665 C.ar    1  UNL1        0.0013
      8 C         140.0234  141.0717  166.6695 C.ar    1  UNL1        0.0206
      9 C         140.6235  142.3391  166.1371 C.ar    1  UNL1       -0.0029
     10 C         140.1930  142.8696  164.8017 C.ar    1  UNL1       -0.0246
     11 C         140.9121  144.1407  164.4592 C.3     1  UNL1        0.0433
     12 C         140.7782  144.9887  163.2292 C.3     1  UNL1        0.0768
     13 C         140.4539  140.5412  168.0049 C.ar    1  UNL1        0.1227
     14 C         141.8322  140.6370  168.5890 C.ar    1  UNL1        0.0580
     15 C         141.8118  139.9768  169.9357 C.ar    1  UNL1        0.1548
     16 C         142.9777  139.8438  170.8701 C.3     1  UNL1        0.0754
     17 O         140.4210  139.4729  170.1839 O.2     1  UNL1       -0.3578
     18 N         139.5817  139.8217  168.9906 N.ar    1  UNL1       -0.0774
     19 C         140.2239  145.3974  159.5374 C.3     1  UNL1        0.0294
     20 C         141.6234  145.2061  159.0323 C.3     1  UNL1        0.0666
     21 S         142.1210  143.8295  158.7051 S.3     1  UNL1       -0.0756
     22 C         141.8605  141.1301  161.4820 C.ar    1  UNL1        0.1668
     23 N         140.7657  140.6966  160.5527 N.ar    1  UNL1       -0.1282
     24 N         140.7301  141.6550  159.3994 N.ar    1  UNL1       -0.1221
     25 C         141.8028  142.6809  159.6159 C.ar    1  UNL1        0.1932
     26 N         142.5014  142.3565  160.9030 N.ar    1  UNL1       -0.2884
     27 C         143.6409  143.1238  161.5054 C.3     1  UNL1        0.1340
     28 C         143.4044  138.4326  166.6142 C.3     1  UNL1        0.0310
     29 C         143.0184  139.1070  165.3311 C.ar    1  UNL1       -0.0218
     30 C         142.0172  138.4642  164.4177 C.ar    1  UNL1       -0.0042
     31 C         141.6312  139.1386  163.1346 C.ar    1  UNL1        0.0027
     32 C         142.2465  140.4558  162.7650 C.ar    1  UNL1        0.0359
     33 C         143.2477  141.0984  163.6785 C.ar    1  UNL1        0.0027
     34 C         143.6337  140.4240  164.9616 C.ar    1  UNL1       -0.0042
@<TRIPOS>BOND
     1    28    29    1
     2    29    30   ar
     3    30    31   ar
     4    31    32   ar
     5    32    22    1
     6    22    23   ar
     7    23    24   ar
     8    24    25   ar
     9    25    21    1
    10    21    20    1
    11    20    19    1
    12    19     1    1
    13     1     2    1
    14     2     3    1
    15     3     4    1
    16     4     5    1
    17     5     6   ar
    18     6     7   ar
    19     7     8   ar
    20     8    13    1
    21    13    14   ar
    22    14    15   ar
    23    15    16    1
    24    15    17   ar
    25    17    18   ar
    26     8     9   ar
    27     9    10   ar
    28    10    11    1
    29    11    12    1
    30    25    26   ar
    31    26    27    1
    32    32    33   ar
    33    33    34   ar
    34    34    29   ar
    35    26    22   ar
    36    12     2    1
    37    10     5   ar
    38    18    13   ar
@<TRIPOS>MOLECULE
*****
 34 38 0 0 0
SMALL
GASTEIGER

@<TRIPOS>ATOM
      1 C         144.2354  142.0764  159.8269 C.3     1  UNL1        0.0730
      2 N         143.7983  141.6078  161.1832 N.3     1  UNL1       -0.2720
      3 C         144.0974  140.1731  161.5035 C.3     1  UNL1        0.0768
      4 C         143.7920  139.4121  162.7595 C.3     1  UNL1        0.0433
      5 C         143.1123  139.8976  164.0053 C.ar    1  UNL1       -0.0247
      6 C         143.0050  138.8084  165.0311 C.ar    1  UNL1       -0.0045
      7 C         142.3554  139.0857  166.3544 C.ar    1  UNL1        0.0013
      8 C         141.8130  140.4522  166.6520 C.ar    1  UNL1        0.0206
      9 C         141.9203  141.5414  165.6262 C.ar    1  UNL1       -0.0029
     10 C         142.5699  141.2641  164.3029 C.ar    1  UNL1       -0.0246
     11 C         142.5734  142.4826  163.4281 C.3     1  UNL1        0.0433
     12 C         143.1202  142.6355  162.0397 C.3     1  UNL1        0.0768
     13 C         141.1634  140.7295  167.9753 C.ar    1  UNL1        0.1227
     14 C         140.7590  142.0777  168.4936 C.ar    1  UNL1        0.0580
     15 C         140.1498  141.8887  169.8512 C.ar    1  UNL1        0.1548
     16 C         139.6079  142.9742  170.7333 C.3     1  UNL1        0.0754
     17 O         140.1778  140.4237  170.1720 O.2     1  UNL1       -0.3578
     18 N         140.8042  139.7072  169.0126 N.ar    1  UNL1       -0.0774
     19 C         143.5618  141.5448  158.5966 C.3     1  UNL1        0.0294
     20 C         142.2053  142.0519  158.2057 C.3     1  UNL1        0.0666
     21 S         141.0167  141.1391  158.2681 S.3     1  UNL1       -0.0756
     22 C         140.2123  139.3032  161.5920 C.ar    1  UNL1        0.1668
     23 N         140.9629  138.2391  160.8474 N.ar    1  UNL1       -0.1282
     24 N         141.3556  138.7974  159.5117 N.ar    1  UNL1       -0.1221
     25 C         140.8477  140.2064  159.4307 C.ar    1  UNL1        0.1932
     26 N         140.1411  140.5190  160.7164 N.ar    1  UNL1       -0.2884
     27 C         139.4795  141.8193  161.0652 C.3     1  UNL1        0.1340
     28 C         137.9007  138.7868  167.1046 C.3     1  UNL1        0.0310
     29 C         138.4786  138.9159  165.7264 C.ar    1  UNL1       -0.0218
     30 C         139.1012  137.7252  165.0597 C.ar    1  UNL1       -0.0042
     31 C         139.6791  137.8543  163.6815 C.ar    1  UNL1        0.0027
     32 C         139.6344  139.1741  162.9701 C.ar    1  UNL1        0.0359
     33 C         139.0118  140.3648  163.6369 C.ar    1  UNL1        0.0027
     34 C         138.4339  140.2356  165.0151 C.ar    1  UNL1       -0.0042
@<TRIPOS>BOND
     1    28    29    1
     2    29    30   ar
     3    30    31   ar
     4    31    32   ar
     5    32    22    1
     6    22    23   ar
     7    23    24   ar
     8    24    25   ar
     9    25    21    1
    10    21    20    1
    11    20    19    1
    12    19     1    1
    13     1     2    1
    14     2     3    1
    15     3     4    1
    16     4     5    1
    17     5     6   ar
    18     6     7   ar
    19     7     8   ar
    20     8    13    1
    21    13    14   ar
    22    14    15   ar
    23    15    16    1
    24    15    17   ar
    25    17    18   ar
    26     8     9   ar
    27     9    10   ar
    28    10    11    1
    29    11    12    1
    30    25    26   ar
    31    26    27    1
    32    32    33   ar
    33    33    34   ar
    34    34    29   ar
    35    26    22   ar
    36    12     2    1
    37    10     5   ar
    38    18    13   ar
@<TRIPOS>MOLECULE
*****
 34 38 0 0 0
SMALL
GASTEIGER

@<TRIPOS>ATOM
      1 C         139.3026  138.1609  160.0969 C.3     1  UNL1        0.0730
      2 N         139.9380  138.6022  161.3821 N.3     1  UNL1       -0.2720
      3 C         141.1537  137.8319  161.8051 C.3     1  UNL1        0.0768
      4 C         142.0053  138.0246  163.0249 C.3     1  UNL1        0.0433
      5 C         141.8515  139.0350  164.1227 C.ar    1  UNL1       -0.0247
      6 C         142.9235  138.8834  165.1610 C.ar    1  UNL1       -0.0045
      7 C         142.9521  139.7992  166.3486 C.ar    1  UNL1        0.0013
      8 C         141.9088  140.8666  166.4980 C.ar    1  UNL1        0.0206
      9 C         140.8369  141.0182  165.4597 C.ar    1  UNL1       -0.0029
     10 C         140.8083  140.1024  164.2721 C.ar    1  UNL1       -0.0246
     11 C         139.6610  140.4229  163.3604 C.3     1  UNL1        0.0433
     12 C         139.2738  139.7552  162.0742 C.3     1  UNL1        0.0768
     13 C         141.9374  141.7824  167.6857 C.ar    1  UNL1        0.1227
     14 C         140.7829  142.5846  168.2085 C.ar    1  UNL1        0.0580
     15 C         141.2575  143.3548  169.4050 C.ar    1  UNL1        0.1548
     16 C         140.4295  144.2873  170.2384 C.3     1  UNL1        0.0754
     17 O         142.7055  143.0286  169.6215 O.2     1  UNL1       -0.3578
     18 N         143.1258  142.0569  168.5590 N.ar    1  UNL1       -0.0774
     19 C         139.3121  139.0707  158.9044 C.3     1  UNL1        0.0294
     20 C         140.2460  138.8002  157.7621 C.3     1  UNL1        0.0666
     21 S         141.5151  139.5884  157.6282 S.3     1  UNL1       -0.0756
     22 C         143.5124  140.4891  160.8321 C.ar    1  UNL1        0.1668
     23 N         144.2699  139.2890  160.3461 N.ar    1  UNL1       -0.1282
     24 N         143.6138  138.8056  159.0868 N.ar    1  UNL1       -0.1221
     25 C         142.4510  139.7069  158.7945 C.ar    1  UNL1        0.1932
     26 N         142.3883  140.7473  159.8731 N.ar    1  UNL1       -0.2884
     27 C         141.3787  141.8520  159.9750 C.3     1  UNL1        0.1340
     28 C         144.7600  143.6936  165.7489 C.3     1  UNL1        0.0310
     29 C         144.4481  142.8924  164.5197 C.ar    1  UNL1       -0.0218
     30 C         143.2156  143.1950  163.7200 C.ar    1  UNL1       -0.0042
     31 C         142.9037  142.3939  162.4908 C.ar    1  UNL1        0.0027
     32 C         143.8242  141.2902  162.0613 C.ar    1  UNL1        0.0359
     33 C         145.0567  140.9877  162.8610 C.ar    1  UNL1        0.0027
     34 C         145.3686  141.7888  164.0902 C.ar    1  UNL1       -0.0042
@<TRIPOS>BOND
     1    28    29    1
     2    29    30   ar
     3    30    31   ar
     4    31    32   ar
     5    32    22    1
     6    22    23   ar
     7    23    24   ar
     8    24    25   ar
     9    25    21    1
    10    21    20    1
    11    20    19    1
    12    19     1    1
    13     1     2    1
    14     2     3    1
    15     3     4    1
    16     4     5    1
    17     5     6   ar
    18     6     7   ar
    19     7     8   ar
    20     8    13    1
    21    13    14   ar
    22    14    15   ar
    23    15    16    1
    24    15    17   ar
    25    17    18   ar
    26     8     9   ar
    27     9    10   ar
    28    10    11    1
    29    11    12    1
    30    25    26   ar
    31    26    27    1
    32    32    33   ar
    33    33    34   ar
    34    34    29   ar
    35    26    22   ar
    36    12     2    1
    37    10     5   ar
    38    18    13   ar
@<TRIPOS>MOLECULE
*****
 34 38 0 0 0
SMALL
GASTEIGER

@<TRIPOS>ATOM
      1 C         139.2226  141.2277  158.4521 C.3     1  UNL1        0.0730
      2 N         139.1510  140.6921  159.8514 N.3     1  UNL1       -0.2720
      3 C         139.0062  139.2039  159.9719 C.3     1  UNL1        0.0768
      4 C         138.9083  138.3715  161.2160 C.3     1  UNL1        0.0433
      5 C         138.9309  138.8217  162.6466 C.ar    1  UNL1       -0.0247
      6 C         138.8058  137.6609  163.5884 C.ar    1  UNL1       -0.0045
      7 C         138.8068  137.8939  165.0702 C.ar    1  UNL1        0.0013
      8 C         138.9329  139.2877  165.6103 C.ar    1  UNL1        0.0206
      9 C         139.0581  140.4484  164.6684 C.ar    1  UNL1       -0.0029
     10 C         139.0571  140.2155  163.1867 C.ar    1  UNL1       -0.0246
     11 C         139.1917  141.5032  162.4294 C.3     1  UNL1        0.0433
     12 C         139.2335  141.7153  160.9450 C.3     1  UNL1        0.0768
     13 C         138.9340  139.5206  167.0921 C.ar    1  UNL1        0.1227
     14 C         139.9805  140.2653  167.8668 C.ar    1  UNL1        0.0580
     15 C         139.5819  140.2547  169.3128 C.ar    1  UNL1        0.1548
     16 C         140.3427  140.8848  170.4416 C.3     1  UNL1        0.0754
     17 O         138.2891  139.5035  169.4318 O.2     1  UNL1       -0.3578
     18 N         137.8886  139.0498  168.0593 N.ar    1  UNL1       -0.0774
     19 C         140.3520  140.8239  157.5514 C.3     1  UNL1        0.0294
     20 C         141.4523  141.7967  157.2459 C.3     1  UNL1        0.0666
     21 S         142.8573  141.5000  157.6792 S.3     1  UNL1       -0.0756
     22 C         143.3661  139.3872  160.8953 C.ar    1  UNL1        0.1668
     23 N         143.6510  138.3689  159.8313 N.ar    1  UNL1       -0.1282
     24 N         143.4951  139.0364  158.4972 N.ar    1  UNL1       -0.1221
     25 C         143.1138  140.4673  158.7365 C.ar    1  UNL1        0.1932
     26 N         143.0341  140.6841  160.2185 N.ar    1  UNL1       -0.2884
     27 C         142.6839  141.9717  160.9037 C.3     1  UNL1        0.1340
     28 C         143.5262  138.4394  166.8177 C.3     1  UNL1        0.0310
     29 C         143.4862  138.6764  165.3371 C.ar    1  UNL1       -0.0218
     30 C         142.3837  138.0818  164.5120 C.ar    1  UNL1       -0.0042
     31 C         142.3436  138.3187  163.0313 C.ar    1  UNL1        0.0027
     32 C         143.4061  139.1503  162.3758 C.ar    1  UNL1        0.0359
     33 C         144.5086  139.7449  163.2011 C.ar    1  UNL1        0.0027
     34 C         144.5486  139.5079  164.6817 C.ar    1  UNL1       -0.0042
@<TRIPOS>BOND
     1    28    29    1
     2    29    30   ar
     3    30    31   ar
     4    31    32   ar
     5    32    22    1
     6    22    23   ar
     7    23    24   ar
     8    24    25   ar
     9    25    21    1
    10    21    20    1
    11    20    19    1
    12    19     1    1
    13     1     2    1
    14     2     3    1
    15     3     4    1
    16     4     5    1
    17     5     6   ar
    18     6     7   ar
    19     7     8   ar
    20     8    13    1
    21    13    14   ar
    22    14    15   ar
    23    15    16    1
    24    15    17   ar
    25    17    18   ar
    26     8     9   ar
    27     9    10   ar
    28    10    11    1
    29    11    12    1
    30    25    26   ar
    31    26    27    1
    32    32    33   ar
    33    33    34   ar
    34    34    29   ar
    35    26    22   ar
    36    12     2    1
    37    10     5   ar
    38    18    13   ar
@<TRIPOS>MOLECULE
*****
 34 38 0 0 0
SMALL
GASTEIGER

@<TRIPOS>ATOM
      1 C         143.9947  139.6885  159.5403 C.3     1  UNL1        0.0730
      2 N         143.6311  139.7909  160.9919 N.3     1  UNL1       -0.2720
      3 C         143.2517  138.5027  161.6602 C.3     1  UNL1        0.0768
      4 C         142.8424  138.2734  163.0850 C.3     1  UNL1        0.0433
      5 C         142.7116  139.2755  164.1933 C.ar    1  UNL1       -0.0247
      6 C         142.2737  138.6247  165.4719 C.ar    1  UNL1       -0.0045
      7 C         142.0818  139.4528  166.7077 C.ar    1  UNL1        0.0013
      8 C         142.3279  140.9319  166.6651 C.ar    1  UNL1        0.0206
      9 C         142.7658  141.5828  165.3865 C.ar    1  UNL1       -0.0029
     10 C         142.9577  140.7546  164.1507 C.ar    1  UNL1       -0.0246
     11 C         143.3953  141.5968  162.9891 C.3     1  UNL1        0.0433
     12 C         143.6951  141.1678  161.5834 C.3     1  UNL1        0.0768
     13 C         142.1360  141.7601  167.9009 C.ar    1  UNL1        0.1227
     14 C         140.9393  142.6070  168.2178 C.ar    1  UNL1        0.0580
     15 C         141.1709  143.2571  169.5496 C.ar    1  UNL1        0.1548
     16 C         140.2280  144.1887  170.2518 C.3     1  UNL1        0.0754
     17 O         142.5108  142.8119  170.0559 O.2     1  UNL1       -0.3578
     18 N         143.1074  141.8867  169.0370 N.ar    1  UNL1       -0.0774
     19 C         143.0022  139.1463  158.5550 C.3     1  UNL1        0.0294
     20 C         142.2334  140.0838  157.6717 C.3     1  UNL1        0.0666
     21 S         140.8331  140.4790  158.0363 S.3     1  UNL1       -0.0756
     22 C         139.8486  140.7998  161.7771 C.ar    1  UNL1        0.1668
     23 N         140.1823  142.2234  161.4420 N.ar    1  UNL1       -0.1282
     24 N         140.5917  142.2764  160.0000 N.ar    1  UNL1       -0.1221
     25 C         140.5110  140.8857  159.4437 C.ar    1  UNL1        0.1932
     26 N         140.0518  139.9732  160.5420 N.ar    1  UNL1       -0.2884
     27 C         139.8339  138.4936  160.4258 C.3     1  UNL1        0.1340
     28 C         138.0218  138.7692  167.1192 C.3     1  UNL1        0.0310
     29 C         138.4785  139.2769  165.7837 C.ar    1  UNL1       -0.0218
     30 C         138.7406  140.7407  165.5874 C.ar    1  UNL1       -0.0042
     31 C         139.1973  141.2484  164.2518 C.ar    1  UNL1        0.0027
     32 C         139.3919  140.2922  163.1125 C.ar    1  UNL1        0.0359
     33 C         139.1297  138.8284  163.3089 C.ar    1  UNL1        0.0027
     34 C         138.6730  138.3208  164.6445 C.ar    1  UNL1       -0.0042
@<TRIPOS>BOND
     1    28    29    1
     2    29    30   ar
     3    30    31   ar
     4    31    32   ar
     5    32    22    1
     6    22    23   ar
     7    23    24   ar
     8    24    25   ar
     9    25    21    1
    10    21    20    1
    11    20    19    1
    12    19     1    1
    13     1     2    1
    14     2     3    1
    15     3     4    1
    16     4     5    1
    17     5     6   ar
    18     6     7   ar
    19     7     8   ar
    20     8    13    1
    21    13    14   ar
    22    14    15   ar
    23    15    16    1
    24    15    17   ar
    25    17    18   ar
    26     8     9   ar
    27     9    10   ar
    28    10    11    1
    29    11    12    1
    30    25    26   ar
    31    26    27    1
    32    32    33   ar
    33    33    34   ar
    34    34    29   ar
    35    26    22   ar
    36    12     2    1
    37    10     5   ar
    38    18    13   ar
@<TRIPOS>MOLECULE
*****
 34 38 0 0 0
SMALL
GASTEIGER

@<TRIPOS>ATOM
      1 C         142.4814  138.7278  159.4687 C.3     1  UNL1        0.0730
      2 N         141.8483  138.8966  160.8180 N.3     1  UNL1       -0.2720
      3 C         140.6356  138.0527  161.0779 C.3     1  UNL1        0.0768
      4 C         139.7867  137.9907  162.3131 C.3     1  UNL1        0.0433
      5 C         139.9406  138.7572  163.5931 C.ar    1  UNL1       -0.0247
      6 C         138.8718  138.3943  164.5811 C.ar    1  UNL1       -0.0045
      7 C         138.8439  139.0493  165.9302 C.ar    1  UNL1        0.0013
      8 C         139.8848  140.0672  166.2915 C.ar    1  UNL1        0.0206
      9 C         140.9536  140.4300  165.3035 C.ar    1  UNL1       -0.0029
     10 C         140.9815  139.7750  163.9544 C.ar    1  UNL1       -0.0246
     11 C         142.1256  140.2777  163.1247 C.3     1  UNL1        0.0433
     12 C         142.5113  139.8867  161.7289 C.3     1  UNL1        0.0768
     13 C         139.8569  140.7222  167.6406 C.ar    1  UNL1        0.1227
     14 C         140.2926  142.1239  167.9494 C.ar    1  UNL1        0.0580
     15 C         140.0933  142.3585  169.4175 C.ar    1  UNL1        0.1548
     16 C         140.3993  143.6271  170.1571 C.3     1  UNL1        0.0754
     17 O         139.5344  141.1018  170.0160 O.2     1  UNL1       -0.3578
     18 N         139.3883  140.0904  168.9179 N.ar    1  UNL1       -0.0774
     19 C         141.6211  138.5324  158.2556 C.3     1  UNL1        0.0294
     20 C         141.2214  139.7134  157.4214 C.3     1  UNL1        0.0666
     21 S         139.7995  140.1907  157.4298 S.3     1  UNL1       -0.0756
     22 C         138.5012  141.4260  160.8728 C.ar    1  UNL1        0.1668
     23 N         137.5661  140.2846  160.6029 N.ar    1  UNL1       -0.1282
     24 N         137.9387  139.6830  159.2804 N.ar    1  UNL1       -0.1221
     25 C         139.1040  140.4525  158.7328 C.ar    1  UNL1        0.1932
     26 N         139.4516  141.5298  159.7169 N.ar    1  UNL1       -0.2884
     27 C         140.5559  142.5345  159.5709 C.3     1  UNL1        0.1340
     28 C         138.4489  144.9567  165.7237 C.3     1  UNL1        0.0310
     29 C         138.4620  144.0740  164.5109 C.ar    1  UNL1       -0.0218
     30 C         139.0131  144.5890  163.2144 C.ar    1  UNL1       -0.0042
     31 C         139.0262  143.7064  162.0016 C.ar    1  UNL1        0.0027
     32 C         138.4881  142.3087  162.0854 C.ar    1  UNL1        0.0359
     33 C         137.9371  141.7937  163.3820 C.ar    1  UNL1        0.0027
     34 C         137.9240  142.6764  164.5948 C.ar    1  UNL1       -0.0042
@<TRIPOS>BOND
     1    28    29    1
     2    29    30   ar
     3    30    31   ar
     4    31    32   ar
     5    32    22    1
     6    22    23   ar
     7    23    24   ar
     8    24    25   ar
     9    25    21    1
    10    21    20    1
    11    20    19    1
    12    19     1    1
    13     1     2    1
    14     2     3    1
    15     3     4    1
    16     4     5    1
    17     5     6   ar
    18     6     7   ar
    19     7     8   ar
    20     8    13    1
    21    13    14   ar
    22    14    15   ar
    23    15    16    1
    24    15    17   ar
    25    17    18   ar
    26     8     9   ar
    27     9    10   ar
    28    10    11    1
    29    11    12    1
    30    25    26   ar
    31    26    27    1
    32    32    33   ar
    33    33    34   ar
    34    34    29   ar
    35    26    22   ar
    36    12     2    1
    37    10     5   ar
    38    18    13   ar
