@<TRIPOS>MOLECULE
*****
 27 28 0 0 0
SMALL
GASTEIGER

@<TRIPOS>ATOM
      1 C         138.4389  138.9300  167.0075 C.3     1  UNL1        0.0342
      2 C         139.2823  140.1338  167.3066 C.ar    1  UNL1        0.0118
      3 C         139.8040  140.9816  166.1845 C.ar    1  UNL1       -0.0013
      4 C         140.6474  142.1854  166.4836 C.ar    1  UNL1        0.0005
      5 C         140.9691  142.5415  167.9047 C.ar    1  UNL1       -0.0013
      6 C         140.4475  141.6937  169.0268 C.ar    1  UNL1        0.0118
      7 C         140.7692  142.0498  170.4480 C.3     1  UNL1        0.0342
      8 C         139.6041  140.4899  168.7277 C.ar    1  UNL1        0.1305
      9 C         141.1691  143.0332  165.3614 C.ar    1  UNL1        0.0136
     10 C         142.5256  142.7594  164.7826 C.ar    1  UNL1        0.0380
     11 C         143.0473  143.6071  163.6605 C.ar    1  UNL1        0.1469
     12 C         142.2125  144.7287  163.1171 C.ar    1  UNL1        0.0380
     13 C         140.8560  145.0025  163.6959 C.ar    1  UNL1        0.0145
     14 C         140.3343  144.1547  164.8180 C.ar    1  UNL1        0.0578
     15 CL        138.9778  144.4285  165.3968 Cl      1  UNL1       -0.0822
     16 O         144.4038  143.3333  163.0817 O.3     1  UNL1       -0.4045
     17 C         145.1596  142.1040  163.4910 C.3     1  UNL1        0.5753
     18 F         145.9155  140.8747  163.9003 F       1  UNL1       -0.1328
     19 F         145.6016  142.7941  164.7474 F       1  UNL1       -0.1328
     20 F         144.7176  141.4140  162.2347 F       1  UNL1       -0.1328
     21 O         139.0824  139.6421  169.8499 O.3     1  UNL1       -0.4761
     22 C         137.7300  139.9222  170.4353 C.3     1  UNL1        0.2058
     23 C         136.6957  138.8371  170.4868 C.3     1  UNL1        0.0532
     24 C         135.9642  138.5584  171.7663 C.3     1  UNL1        0.0455
     25 C         135.9747  137.1769  172.3507 C.2     1  UNL1        0.0505
     26 O         134.8190  136.7057  173.1828 O.co2   1  UNL1       -0.5492
     27 O         137.1410  136.2667  172.1030 O.co2   1  UNL1       -0.5492
@<TRIPOS>UNITY_ATOM_ATTR
26 1
charge -1
@<TRIPOS>BOND
     1     1     2    1
     2     2     3   ar
     3     3     4   ar
     4     4     9    1
     5     9    10   ar
     6    10    11   ar
     7    11    16    1
     8    16    17    1
     9    17    18    1
    10    17    19    1
    11    17    20    1
    12    11    12   ar
    13    12    13   ar
    14    13    14   ar
    15    14    15    1
    16     4     5   ar
    17     5     6   ar
    18     6     7    1
    19     6     8   ar
    20     8    21    1
    21    21    22    1
    22    22    23    1
    23    23    24    1
    24    24    25    1
    25    25    26   ar
    26    25    27   ar
    27     8     2   ar
    28    14     9   ar
@<TRIPOS>MOLECULE
*****
 27 28 0 0 0
SMALL
GASTEIGER

@<TRIPOS>ATOM
      1 C         139.2397  140.2216  169.3317 C.3     1  UNL1        0.0342
      2 C         139.9308  140.0047  168.0182 C.ar    1  UNL1        0.0118
      3 C         139.1799  140.2000  166.7345 C.ar    1  UNL1       -0.0013
      4 C         139.8710  139.9831  165.4209 C.ar    1  UNL1        0.0005
      5 C         141.3129  139.5710  165.3911 C.ar    1  UNL1       -0.0013
      6 C         142.0638  139.3758  166.6749 C.ar    1  UNL1        0.0118
      7 C         143.5058  138.9636  166.6451 C.3     1  UNL1        0.0342
      8 C         141.3727  139.5926  167.9884 C.ar    1  UNL1        0.1305
      9 C         139.1200  140.1784  164.1371 C.ar    1  UNL1        0.0136
     10 C         138.8624  141.5635  163.6222 C.ar    1  UNL1        0.0380
     11 C         138.1115  141.7588  162.3385 C.ar    1  UNL1        0.1469
     12 C         137.6182  140.5690  161.5696 C.ar    1  UNL1        0.0380
     13 C         137.8759  139.1839  162.0846 C.ar    1  UNL1        0.0145
     14 C         138.6268  138.9886  163.3683 C.ar    1  UNL1        0.0578
     15 CL        138.8845  137.6035  163.8833 Cl      1  UNL1       -0.0822
     16 O         137.8538  143.1439  161.8236 O.3     1  UNL1       -0.4045
     17 C         138.4840  144.3249  162.5003 C.3     1  UNL1        0.5753
     18 F         139.1143  145.5060  163.1771 F       1  UNL1       -0.1328
     19 F         137.2850  144.4536  163.3923 F       1  UNL1       -0.1328
     20 F         139.6830  144.1962  161.6083 F       1  UNL1       -0.1328
     21 O         142.1237  139.3973  169.2722 O.3     1  UNL1       -0.4761
     22 C         142.8198  140.5585  169.9179 C.3     1  UNL1        0.2058
     23 C         142.7102  141.9279  169.3157 C.3     1  UNL1        0.0532
     24 C         142.0333  143.0297  170.0760 C.3     1  UNL1        0.0455
     25 C         140.7521  143.6175  169.5632 C.2     1  UNL1        0.0505
     26 O         139.9139  144.4834  170.4562 O.co2   1  UNL1       -0.5492
     27 O         140.3091  143.3393  168.1573 O.co2   1  UNL1       -0.5492
@<TRIPOS>UNITY_ATOM_ATTR
26 1
charge -1
@<TRIPOS>BOND
     1     1     2    1
     2     2     3   ar
     3     3     4   ar
     4     4     9    1
     5     9    10   ar
     6    10    11   ar
     7    11    16    1
     8    16    17    1
     9    17    18    1
    10    17    19    1
    11    17    20    1
    12    11    12   ar
    13    12    13   ar
    14    13    14   ar
    15    14    15    1
    16     4     5   ar
    17     5     6   ar
    18     6     7    1
    19     6     8   ar
    20     8    21    1
    21    21    22    1
    22    22    23    1
    23    23    24    1
    24    24    25    1
    25    25    26   ar
    26    25    27   ar
    27     8     2   ar
    28    14     9   ar
@<TRIPOS>MOLECULE
*****
 27 28 0 0 0
SMALL
GASTEIGER

@<TRIPOS>ATOM
      1 C         143.5090  138.8400  166.8768 C.3     1  UNL1        0.0342
      2 C         142.0718  139.2694  166.8889 C.ar    1  UNL1        0.0118
      3 C         141.3180  139.4031  165.5990 C.ar    1  UNL1       -0.0013
      4 C         139.8809  139.8324  165.6111 C.ar    1  UNL1        0.0005
      5 C         139.1974  140.1281  166.9132 C.ar    1  UNL1       -0.0013
      6 C         139.9512  139.9944  168.2031 C.ar    1  UNL1        0.0118
      7 C         139.2677  140.2900  169.5053 C.3     1  UNL1        0.0342
      8 C         141.3883  139.5650  168.1910 C.ar    1  UNL1        0.1305
      9 C         139.1271  139.9661  164.3211 C.ar    1  UNL1        0.0136
     10 C         138.6622  141.3158  163.8606 C.ar    1  UNL1        0.0380
     11 C         137.9085  141.4496  162.5706 C.ar    1  UNL1        0.1469
     12 C         137.6197  140.2336  161.7412 C.ar    1  UNL1        0.0380
     13 C         138.0845  138.8838  162.2017 C.ar    1  UNL1        0.0145
     14 C         138.8383  138.7501  163.4918 C.ar    1  UNL1        0.0578
     15 CL        139.3032  137.4004  163.9523 Cl      1  UNL1       -0.0822
     16 O         137.4436  142.7993  162.1101 O.3     1  UNL1       -0.4045
     17 C         138.3638  143.9805  162.2001 C.3     1  UNL1        0.5753
     18 F         139.2840  145.1617  162.2901 F       1  UNL1       -0.1328
     19 F         137.4197  144.6428  163.1592 F       1  UNL1       -0.1328
     20 F         139.3079  143.3181  161.2410 F       1  UNL1       -0.1328
     21 O         142.1421  139.4313  169.4810 O.3     1  UNL1       -0.4761
     22 C         142.8982  140.6034  170.0328 C.3     1  UNL1        0.2058
     23 C         142.7726  141.9498  169.3837 C.3     1  UNL1        0.0532
     24 C         142.0742  143.0664  170.1017 C.3     1  UNL1        0.0455
     25 C         140.7647  143.5861  169.5867 C.2     1  UNL1        0.0505
     26 O         139.8616  144.3714  170.4909 O.co2   1  UNL1       -0.5492
     27 O         140.3584  143.3205  168.1674 O.co2   1  UNL1       -0.5492
@<TRIPOS>UNITY_ATOM_ATTR
26 1
charge -1
@<TRIPOS>BOND
     1     1     2    1
     2     2     3   ar
     3     3     4   ar
     4     4     9    1
     5     9    10   ar
     6    10    11   ar
     7    11    16    1
     8    16    17    1
     9    17    18    1
    10    17    19    1
    11    17    20    1
    12    11    12   ar
    13    12    13   ar
    14    13    14   ar
    15    14    15    1
    16     4     5   ar
    17     5     6   ar
    18     6     7    1
    19     6     8   ar
    20     8    21    1
    21    21    22    1
    22    22    23    1
    23    23    24    1
    24    24    25    1
    25    25    26   ar
    26    25    27   ar
    27     8     2   ar
    28    14     9   ar
@<TRIPOS>MOLECULE
*****
 27 28 0 0 0
SMALL
GASTEIGER

@<TRIPOS>ATOM
      1 C         144.0692  144.6459  162.9668 C.3     1  UNL1        0.0342
      2 C         143.1050  143.5499  163.3117 C.ar    1  UNL1        0.0118
      3 C         143.1909  142.8673  164.6446 C.ar    1  UNL1       -0.0013
      4 C         142.2267  141.7713  164.9895 C.ar    1  UNL1        0.0005
      5 C         141.1764  141.3579  164.0016 C.ar    1  UNL1       -0.0013
      6 C         141.0905  142.0405  162.6687 C.ar    1  UNL1        0.0118
      7 C         140.0402  141.6271  161.6806 C.3     1  UNL1        0.0342
      8 C         142.0547  143.1365  162.3237 C.ar    1  UNL1        0.1305
      9 C         142.3127  141.0887  166.3225 C.ar    1  UNL1        0.0136
     10 C         141.8648  141.8048  167.5621 C.ar    1  UNL1        0.0380
     11 C         141.9507  141.1223  168.8950 C.ar    1  UNL1        0.1469
     12 C         142.4846  139.7236  168.9884 C.ar    1  UNL1        0.0380
     13 C         142.9326  139.0075  167.7488 C.ar    1  UNL1        0.0145
     14 C         142.8466  139.6901  166.4158 C.ar    1  UNL1        0.0578
     15 CL        143.2945  138.9740  165.1762 Cl      1  UNL1       -0.0822
     16 O         141.5028  141.8384  170.1346 O.3     1  UNL1       -0.4045
     17 C         140.9302  143.2213  170.0363 C.3     1  UNL1        0.5753
     18 F         140.3576  144.6043  169.9381 F       1  UNL1       -0.1328
     19 F         142.2992  143.8021  170.2328 F       1  UNL1       -0.1328
     20 F         139.5613  142.6405  169.8399 F       1  UNL1       -0.1328
     21 O         141.9687  143.8191  160.9908 O.3     1  UNL1       -0.4761
     22 C         141.0508  144.9910  160.8061 C.3     1  UNL1        0.2058
     23 C         140.4346  145.6566  162.0008 C.3     1  UNL1        0.0532
     24 C         139.0867  145.2182  162.4915 C.3     1  UNL1        0.0455
     25 C         138.9310  144.6948  163.8887 C.2     1  UNL1        0.0505
     26 O         137.6037  144.1691  164.3491 O.co2   1  UNL1       -0.5492
     27 O         140.1026  144.6971  164.8253 O.co2   1  UNL1       -0.5492
@<TRIPOS>UNITY_ATOM_ATTR
26 1
charge -1
@<TRIPOS>BOND
     1     1     2    1
     2     2     3   ar
     3     3     4   ar
     4     4     9    1
     5     9    10   ar
     6    10    11   ar
     7    11    16    1
     8    16    17    1
     9    17    18    1
    10    17    19    1
    11    17    20    1
    12    11    12   ar
    13    12    13   ar
    14    13    14   ar
    15    14    15    1
    16     4     5   ar
    17     5     6   ar
    18     6     7    1
    19     6     8   ar
    20     8    21    1
    21    21    22    1
    22    22    23    1
    23    23    24    1
    24    24    25    1
    25    25    26   ar
    26    25    27   ar
    27     8     2   ar
    28    14     9   ar
@<TRIPOS>MOLECULE
*****
 27 28 0 0 0
SMALL
GASTEIGER

@<TRIPOS>ATOM
      1 C         143.6622  144.8501  163.0318 C.3     1  UNL1        0.0342
      2 C         142.6002  144.2399  163.8978 C.ar    1  UNL1        0.0118
      3 C         142.9429  143.1063  164.8182 C.ar    1  UNL1       -0.0013
      4 C         141.8809  142.4961  165.6842 C.ar    1  UNL1        0.0005
      5 C         140.4763  143.0196  165.6297 C.ar    1  UNL1       -0.0013
      6 C         140.1337  144.1532  164.7092 C.ar    1  UNL1        0.0118
      7 C         138.7290  144.6768  164.6547 C.3     1  UNL1        0.0342
      8 C         141.1956  144.7634  163.8433 C.ar    1  UNL1        0.1305
      9 C         142.2236  141.3623  166.6047 C.ar    1  UNL1        0.0136
     10 C         142.2454  141.5813  168.0885 C.ar    1  UNL1        0.0380
     11 C         142.5881  140.4477  169.0090 C.ar    1  UNL1        0.1469
     12 C         142.9090  139.0950  168.4458 C.ar    1  UNL1        0.0380
     13 C         142.8872  138.8759  166.9620 C.ar    1  UNL1        0.0145
     14 C         142.5445  140.0097  166.0415 C.ar    1  UNL1        0.0578
     15 CL        142.5227  139.7907  164.5577 Cl      1  UNL1       -0.0822
     16 O         142.6099  140.6667  170.4928 O.3     1  UNL1       -0.4045
     17 C         141.5332  141.4810  171.1466 C.3     1  UNL1        0.5753
     18 F         140.4564  142.2954  171.8005 F       1  UNL1       -0.1328
     19 F         142.4630  142.6561  171.2141 F       1  UNL1       -0.1328
     20 F         140.6034  140.3059  171.0791 F       1  UNL1       -0.1328
     21 O         140.8529  145.8972  162.9227 O.3     1  UNL1       -0.4761
     22 C         140.3072  145.6137  161.5546 C.3     1  UNL1        0.2058
     23 C         140.3371  144.2164  161.0099 C.3     1  UNL1        0.0532
     24 C         139.0683  143.4222  160.9124 C.3     1  UNL1        0.0455
     25 C         138.8615  142.2276  161.7959 C.2     1  UNL1        0.0505
     26 O         140.0392  141.5579  162.4395 O.co2   1  UNL1       -0.5492
     27 O         137.4768  141.7030  162.0356 O.co2   1  UNL1       -0.5492
@<TRIPOS>UNITY_ATOM_ATTR
26 1
charge -1
@<TRIPOS>BOND
     1     1     2    1
     2     2     3   ar
     3     3     4   ar
     4     4     9    1
     5     9    10   ar
     6    10    11   ar
     7    11    16    1
     8    16    17    1
     9    17    18    1
    10    17    19    1
    11    17    20    1
    12    11    12   ar
    13    12    13   ar
    14    13    14   ar
    15    14    15    1
    16     4     5   ar
    17     5     6   ar
    18     6     7    1
    19     6     8   ar
    20     8    21    1
    21    21    22    1
    22    22    23    1
    23    23    24    1
    24    24    25    1
    25    25    26   ar
    26    25    27   ar
    27     8     2   ar
    28    14     9   ar
@<TRIPOS>MOLECULE
*****
 27 28 0 0 0
SMALL
GASTEIGER

@<TRIPOS>ATOM
      1 C         143.0936  141.7911  167.9755 C.3     1  UNL1        0.0342
      2 C         141.9897  141.6650  166.9679 C.ar    1  UNL1        0.0118
      3 C         141.8714  142.6648  165.8559 C.ar    1  UNL1       -0.0013
      4 C         140.7675  142.5387  164.8482 C.ar    1  UNL1        0.0005
      5 C         139.7818  141.4129  164.9525 C.ar    1  UNL1       -0.0013
      6 C         139.9000  140.4131  166.0645 C.ar    1  UNL1        0.0118
      7 C         138.9143  139.2872  166.1688 C.3     1  UNL1        0.0342
      8 C         141.0040  140.5392  167.0721 C.ar    1  UNL1        0.1305
      9 C         140.6493  143.5385  163.7362 C.ar    1  UNL1        0.0136
     10 C         141.5583  143.4480  162.5465 C.ar    1  UNL1        0.0380
     11 C         141.4401  144.4478  161.4346 C.ar    1  UNL1        0.1469
     12 C         140.4129  145.5381  161.5123 C.ar    1  UNL1        0.0380
     13 C         139.5038  145.6286  162.7020 C.ar    1  UNL1        0.0145
     14 C         139.6220  144.6288  163.8140 C.ar    1  UNL1        0.0578
     15 CL        138.7130  144.7193  165.0037 Cl      1  UNL1       -0.0822
     16 O         142.3492  144.3573  160.2449 O.3     1  UNL1       -0.4045
     17 C         142.8168  143.0176  159.7584 C.3     1  UNL1        0.5753
     18 F         143.2843  141.6779  159.2720 F       1  UNL1       -0.1328
     19 F         144.1281  143.2214  160.4576 F       1  UNL1       -0.1328
     20 F         141.5055  142.8138  159.0592 F       1  UNL1       -0.1328
     21 O         141.1222  139.5394  168.1841 O.3     1  UNL1       -0.4761
     22 C         140.5752  139.8611  169.5433 C.3     1  UNL1        0.2058
     23 C         139.4426  140.8342  169.6848 C.3     1  UNL1        0.0532
     24 C         139.7262  142.3011  169.8184 C.3     1  UNL1        0.0455
     25 C         140.6783  142.7881  170.8704 C.2     1  UNL1        0.0505
     26 O         140.6064  142.2329  172.2620 O.co2   1  UNL1       -0.5492
     27 O         141.7023  143.8302  170.5306 O.co2   1  UNL1       -0.5492
@<TRIPOS>UNITY_ATOM_ATTR
26 1
charge -1
@<TRIPOS>BOND
     1     1     2    1
     2     2     3   ar
     3     3     4   ar
     4     4     9    1
     5     9    10   ar
     6    10    11   ar
     7    11    16    1
     8    16    17    1
     9    17    18    1
    10    17    19    1
    11    17    20    1
    12    11    12   ar
    13    12    13   ar
    14    13    14   ar
    15    14    15    1
    16     4     5   ar
    17     5     6   ar
    18     6     7    1
    19     6     8   ar
    20     8    21    1
    21    21    22    1
    22    22    23    1
    23    23    24    1
    24    24    25    1
    25    25    26   ar
    26    25    27   ar
    27     8     2   ar
    28    14     9   ar
@<TRIPOS>MOLECULE
*****
 27 28 0 0 0
SMALL
GASTEIGER

@<TRIPOS>ATOM
      1 C         138.9756  139.2026  166.8977 C.3     1  UNL1        0.0342
      2 C         139.4797  140.6149  166.9340 C.ar    1  UNL1        0.0118
      3 C         139.5397  141.4225  165.6715 C.ar    1  UNL1       -0.0013
      4 C         140.0438  142.8348  165.7077 C.ar    1  UNL1        0.0005
      5 C         140.4879  143.4395  167.0066 C.ar    1  UNL1       -0.0013
      6 C         140.4279  142.6319  168.2692 C.ar    1  UNL1        0.0118
      7 C         140.8720  143.2366  169.5681 C.3     1  UNL1        0.0342
      8 C         139.9238  141.2196  168.2329 C.ar    1  UNL1        0.1305
      9 C         140.1038  143.6424  164.4451 C.ar    1  UNL1        0.0136
     10 C         141.3692  143.6837  163.6406 C.ar    1  UNL1        0.0380
     11 C         141.4293  144.4912  162.3780 C.ar    1  UNL1        0.1469
     12 C         140.2239  145.2575  161.9198 C.ar    1  UNL1        0.0380
     13 C         138.9585  145.2162  162.7242 C.ar    1  UNL1        0.0145
     14 C         138.8985  144.4086  163.9869 C.ar    1  UNL1        0.0578
     15 CL        137.6331  144.3673  164.7913 Cl      1  UNL1       -0.0822
     16 O         142.6947  144.5326  161.5736 O.3     1  UNL1       -0.4045
     17 C         143.9114  143.7970  162.0514 C.3     1  UNL1        0.5753
     18 F         145.1283  143.0614  162.5292 F       1  UNL1       -0.1328
     19 F         143.4630  142.5731  161.3092 F       1  UNL1       -0.1328
     20 F         144.3599  145.0209  162.7936 F       1  UNL1       -0.1328
     21 O         139.8638  140.4120  169.4956 O.3     1  UNL1       -0.4761
     22 C         141.0155  139.5300  169.8771 C.3     1  UNL1        0.2058
     23 C         142.4194  139.9480  169.5543 C.3     1  UNL1        0.0532
     24 C         142.8481  140.0952  168.1244 C.3     1  UNL1        0.0455
     25 C         143.0019  138.8799  167.2586 C.2     1  UNL1        0.0505
     26 O         143.9472  137.7870  167.6611 O.co2   1  UNL1       -0.5492
     27 O         142.2102  138.7575  165.9904 O.co2   1  UNL1       -0.5492
@<TRIPOS>UNITY_ATOM_ATTR
26 1
charge -1
@<TRIPOS>BOND
     1     1     2    1
     2     2     3   ar
     3     3     4   ar
     4     4     9    1
     5     9    10   ar
     6    10    11   ar
     7    11    16    1
     8    16    17    1
     9    17    18    1
    10    17    19    1
    11    17    20    1
    12    11    12   ar
    13    12    13   ar
    14    13    14   ar
    15    14    15    1
    16     4     5   ar
    17     5     6   ar
    18     6     7    1
    19     6     8   ar
    20     8    21    1
    21    21    22    1
    22    22    23    1
    23    23    24    1
    24    24    25    1
    25    25    26   ar
    26    25    27   ar
    27     8     2   ar
    28    14     9   ar
@<TRIPOS>MOLECULE
*****
 27 28 0 0 0
SMALL
GASTEIGER

@<TRIPOS>ATOM
      1 C         142.8783  145.1170  163.3620 C.3     1  UNL1        0.0342
      2 C         141.5886  144.5180  163.8391 C.ar    1  UNL1        0.0118
      3 C         141.5834  143.5894  165.0171 C.ar    1  UNL1       -0.0013
      4 C         140.2936  142.9903  165.4942 C.ar    1  UNL1        0.0005
      5 C         139.0091  143.3199  164.7934 C.ar    1  UNL1       -0.0013
      6 C         139.0142  144.2484  163.6154 C.ar    1  UNL1        0.0118
      7 C         137.7296  144.5780  162.9145 C.3     1  UNL1        0.0342
      8 C         140.3040  144.8475  163.1383 C.ar    1  UNL1        0.1305
      9 C         140.2885  142.0617  166.6723 C.ar    1  UNL1        0.0136
     10 C         141.0542  142.4185  167.9118 C.ar    1  UNL1        0.0380
     11 C         141.0491  141.4899  169.0898 C.ar    1  UNL1        0.1469
     12 C         140.2783  140.2045  169.0283 C.ar    1  UNL1        0.0380
     13 C         139.5126  139.8478  167.7888 C.ar    1  UNL1        0.0145
     14 C         139.5177  140.7764  166.6108 C.ar    1  UNL1        0.0578
     15 CL        138.7521  140.4196  165.3712 Cl      1  UNL1       -0.0822
     16 O         141.8147  141.8467  170.3294 O.3     1  UNL1       -0.4045
     17 C         143.2448  142.2875  170.2268 C.3     1  UNL1        0.5753
     18 F         144.6750  142.7283  170.1241 F       1  UNL1       -0.1328
     19 F         142.8437  143.6794  170.6162 F       1  UNL1       -0.1328
     20 F         143.6459  140.8956  169.8373 F       1  UNL1       -0.1328
     21 O         140.3091  145.7761  161.9603 O.3     1  UNL1       -0.4761
     22 C         140.6264  145.2499  160.5919 C.3     1  UNL1        0.2058
     23 C         140.5707  143.7751  160.3239 C.3     1  UNL1        0.0532
     24 C         141.7908  142.9281  160.5337 C.3     1  UNL1        0.0455
     25 C         143.0533  143.2327  159.7832 C.2     1  UNL1        0.0505
     26 O         143.0040  144.0754  158.5433 O.co2   1  UNL1       -0.5492
     27 O         144.3651  142.6944  160.2725 O.co2   1  UNL1       -0.5492
@<TRIPOS>UNITY_ATOM_ATTR
26 1
charge -1
@<TRIPOS>BOND
     1     1     2    1
     2     2     3   ar
     3     3     4   ar
     4     4     9    1
     5     9    10   ar
     6    10    11   ar
     7    11    16    1
     8    16    17    1
     9    17    18    1
    10    17    19    1
    11    17    20    1
    12    11    12   ar
    13    12    13   ar
    14    13    14   ar
    15    14    15    1
    16     4     5   ar
    17     5     6   ar
    18     6     7    1
    19     6     8   ar
    20     8    21    1
    21    21    22    1
    22    22    23    1
    23    23    24    1
    24    24    25    1
    25    25    26   ar
    26    25    27   ar
    27     8     2   ar
    28    14     9   ar
@<TRIPOS>MOLECULE
*****
 27 28 0 0 0
SMALL
GASTEIGER

@<TRIPOS>ATOM
      1 C         143.1202  142.6089  162.3105 C.3     1  UNL1        0.0342
      2 C         141.9099  142.8637  163.1592 C.ar    1  UNL1        0.0118
      3 C         141.7660  142.1779  164.4854 C.ar    1  UNL1       -0.0013
      4 C         140.5557  142.4328  165.3342 C.ar    1  UNL1        0.0005
      5 C         139.4894  143.3734  164.8566 C.ar    1  UNL1       -0.0013
      6 C         139.6333  144.0592  163.5304 C.ar    1  UNL1        0.0118
      7 C         138.5669  144.9998  163.0528 C.3     1  UNL1        0.0342
      8 C         140.8435  143.8043  162.6817 C.ar    1  UNL1        0.1305
      9 C         140.4119  141.7469  166.6605 C.ar    1  UNL1        0.0136
     10 C         141.2038  142.2243  167.8415 C.ar    1  UNL1        0.0380
     11 C         141.0600  141.5386  169.1677 C.ar    1  UNL1        0.1469
     12 C         140.1242  140.3753  169.3130 C.ar    1  UNL1        0.0380
     13 C         139.3322  139.8978  168.1320 C.ar    1  UNL1        0.0145
     14 C         139.4761  140.5837  166.8057 C.ar    1  UNL1        0.0578
     15 CL        138.6841  140.1062  165.6246 Cl      1  UNL1       -0.0822
     16 O         141.8520  142.0160  170.3487 O.3     1  UNL1       -0.4045
     17 C         143.3022  142.3637  170.1882 C.3     1  UNL1        0.5753
     18 F         144.7526  142.7114  170.0277 F       1  UNL1       -0.1328
     19 F         143.0207  143.7579  170.6645 F       1  UNL1       -0.1328
     20 F         143.5838  140.9695  169.7120 F       1  UNL1       -0.1328
     21 O         140.9874  144.4902  161.3554 O.3     1  UNL1       -0.4761
     22 C         140.3819  143.8802  160.1261 C.3     1  UNL1        0.2058
     23 C         139.8941  142.4621  160.1549 C.3     1  UNL1        0.0532
     24 C         138.4923  142.1599  160.5949 C.3     1  UNL1        0.0455
     25 C         138.2538  141.3261  161.8189 C.2     1  UNL1        0.0505
     26 O         136.9871  141.4929  162.6048 O.co2   1  UNL1       -0.5492
     27 O         139.2820  140.3257  162.2570 O.co2   1  UNL1       -0.5492
@<TRIPOS>UNITY_ATOM_ATTR
26 1
charge -1
@<TRIPOS>BOND
     1     1     2    1
     2     2     3   ar
     3     3     4   ar
     4     4     9    1
     5     9    10   ar
     6    10    11   ar
     7    11    16    1
     8    16    17    1
     9    17    18    1
    10    17    19    1
    11    17    20    1
    12    11    12   ar
    13    12    13   ar
    14    13    14   ar
    15    14    15    1
    16     4     5   ar
    17     5     6   ar
    18     6     7    1
    19     6     8   ar
    20     8    21    1
    21    21    22    1
    22    22    23    1
    23    23    24    1
    24    24    25    1
    25    25    26   ar
    26    25    27   ar
    27     8     2   ar
    28    14     9   ar
