@<TRIPOS>MOLECULE
*****
 31 34 0 0 0
SMALL
GASTEIGER

@<TRIPOS>ATOM
      1 C         141.1838  144.7675  160.4294 C.ar    1  UNL1        0.1721
      2 C         140.1865  145.6173  161.1596 C.ar    1  UNL1        0.0400
      3 C         140.3784  145.9140  162.6174 C.ar    1  UNL1        0.0030
      4 C         141.5678  145.3608  163.3450 C.ar    1  UNL1        0.0003
      5 C         142.5651  144.5109  162.6148 C.ar    1  UNL1        0.0309
      6 C         142.3731  144.2143  161.1571 C.ar    1  UNL1        0.1701
      7 C         139.7920  143.6943  158.5160 C.3     1  UNL1        0.2526
      8 O         140.9917  144.4708  158.9717 O.3     1  UNL1       -0.4684
      9 C         143.7544  143.9577  163.3425 C.3     1  UNL1        0.1023
     10 N         143.6608  142.6284  164.0310 N.3     1  UNL1       -0.2689
     11 C         144.6040  141.6151  163.4536 C.3     1  UNL1        0.0724
     12 C         144.9231  140.1780  163.7413 C.3     1  UNL1        0.0173
     13 C         144.4310  139.1588  164.7258 C.3     1  UNL1        0.0014
     14 C         143.4161  139.1547  165.8303 C.3     1  UNL1        0.0001
     15 C         142.4729  140.1680  166.4078 C.3     1  UNL1        0.0014
     16 C         142.1538  141.6051  166.1200 C.3     1  UNL1        0.0173
     17 C         142.6459  142.6242  165.1355 C.3     1  UNL1        0.0724
     18 O         143.3704  143.3644  160.4269 O.3     1  UNL1       -0.4662
     19 C         142.9409  142.0660  159.8107 C.3     1  UNL1        0.2515
     20 C         142.4337  140.9545  160.6809 C.ar    1  UNL1        0.1097
     21 C         142.8433  139.5138  160.5993 C.ar    1  UNL1        0.0553
     22 S         142.0906  138.7575  161.6534 S.2     1  UNL1       -0.0662
     23 C         141.2157  139.7306  162.3866 C.ar    1  UNL1        0.1105
     24 N         141.4278  141.0884  161.7856 N.ar    1  UNL1       -0.2390
     25 C         140.2912  139.4035  163.5215 C.ar    1  UNL1        0.0239
     26 C         139.3999  140.4659  164.0930 C.ar    1  UNL1        0.0029
     27 C         138.4753  140.1388  165.2280 C.ar    1  UNL1        0.0115
     28 C         138.4421  138.7490  165.7915 C.ar    1  UNL1        0.0577
     29 CL        137.5175  138.4219  166.9265 Cl      1  UNL1       -0.0822
     30 C         139.3335  137.6866  165.2201 C.ar    1  UNL1        0.0115
     31 C         140.2580  138.0137  164.0851 C.ar    1  UNL1        0.0029
@<TRIPOS>BOND
     1     7     8    1
     2     8     1    1
     3     1     2   ar
     4     2     3   ar
     5     3     4   ar
     6     4     5   ar
     7     5     9    1
     8     9    10    1
     9    10    11    1
    10    11    12    1
    11    12    13    1
    12    13    14    1
    13    14    15    1
    14    15    16    1
    15    16    17    1
    16     5     6   ar
    17     6    18    1
    18    18    19    1
    19    19    20    1
    20    20    21   ar
    21    21    22   ar
    22    22    23   ar
    23    23    25    1
    24    25    26   ar
    25    26    27   ar
    26    27    28   ar
    27    28    29    1
    28    28    30   ar
    29    30    31   ar
    30    23    24   ar
    31     6     1   ar
    32    24    20   ar
    33    17    10    1
    34    31    25   ar
@<TRIPOS>MOLECULE
*****
 31 34 0 0 0
SMALL
GASTEIGER

@<TRIPOS>ATOM
      1 C         141.2298  144.9607  162.9138 C.ar    1  UNL1        0.1721
      2 C         142.2761  145.6667  163.7242 C.ar    1  UNL1        0.0400
      3 C         143.6058  145.0151  163.9635 C.ar    1  UNL1        0.0030
      4 C         143.8891  143.6573  163.3924 C.ar    1  UNL1        0.0003
      5 C         142.8428  142.9513  162.5820 C.ar    1  UNL1        0.0309
      6 C         141.5132  143.6029  162.3427 C.ar    1  UNL1        0.1701
      7 C         139.6603  146.3860  161.4120 C.3     1  UNL1        0.2526
      8 O         139.9001  145.6124  162.6745 O.3     1  UNL1       -0.4684
      9 C         143.1263  141.5935  162.0110 C.3     1  UNL1        0.1023
     10 N         142.5895  140.3677  162.6888 N.3     1  UNL1       -0.2689
     11 C         141.7150  139.5490  161.7861 C.3     1  UNL1        0.0724
     12 C         140.9419  138.2718  161.9309 C.3     1  UNL1        0.0173
     13 C         140.7231  137.2842  163.0385 C.3     1  UNL1        0.0014
     14 C         141.1867  137.1648  164.4600 C.3     1  UNL1        0.0001
     15 C         142.0612  137.9835  165.3627 C.3     1  UNL1        0.0014
     16 C         142.8343  139.2607  165.2179 C.3     1  UNL1        0.0173
     17 C         143.0531  140.2483  164.1103 C.3     1  UNL1        0.0724
     18 O         140.4669  142.8968  161.5324 O.3     1  UNL1       -0.4662
     19 C         139.1721  142.4895  162.1707 C.3     1  UNL1        0.2515
     20 C         139.1790  141.7579  163.4801 C.ar    1  UNL1        0.1097
     21 C         138.5107  140.4445  163.7600 C.ar    1  UNL1        0.0553
     22 S         138.7742  140.0862  165.1925 S.2     1  UNL1       -0.0662
     23 C         139.6055  141.1781  165.7981 C.ar    1  UNL1        0.1105
     24 N         139.8557  142.2112  164.7398 N.ar    1  UNL1       -0.2390
     25 C         140.0998  141.2280  167.2133 C.ar    1  UNL1        0.0239
     26 C         140.1520  139.9737  168.0343 C.ar    1  UNL1        0.0029
     27 C         140.6463  140.0236  169.4497 C.ar    1  UNL1        0.0115
     28 C         141.0884  141.3279  170.0441 C.ar    1  UNL1        0.0577
     29 CL        141.5827  141.3778  171.4595 Cl      1  UNL1       -0.0822
     30 C         141.0363  142.5822  169.2231 C.ar    1  UNL1        0.0115
     31 C         140.5420  142.5323  167.8078 C.ar    1  UNL1        0.0029
@<TRIPOS>BOND
     1     7     8    1
     2     8     1    1
     3     1     2   ar
     4     2     3   ar
     5     3     4   ar
     6     4     5   ar
     7     5     9    1
     8     9    10    1
     9    10    11    1
    10    11    12    1
    11    12    13    1
    12    13    14    1
    13    14    15    1
    14    15    16    1
    15    16    17    1
    16     5     6   ar
    17     6    18    1
    18    18    19    1
    19    19    20    1
    20    20    21   ar
    21    21    22   ar
    22    22    23   ar
    23    23    25    1
    24    25    26   ar
    25    26    27   ar
    26    27    28   ar
    27    28    29    1
    28    28    30   ar
    29    30    31   ar
    30    23    24   ar
    31     6     1   ar
    32    24    20   ar
    33    17    10    1
    34    31    25   ar
@<TRIPOS>MOLECULE
*****
 31 34 0 0 0
SMALL
GASTEIGER

@<TRIPOS>ATOM
      1 C         140.6065  144.4639  160.9939 C.ar    1  UNL1        0.1721
      2 C         140.3390  145.5986  161.9378 C.ar    1  UNL1        0.0400
      3 C         139.2049  145.5095  162.9154 C.ar    1  UNL1        0.0030
      4 C         138.3382  144.2857  162.9491 C.ar    1  UNL1        0.0003
      5 C         138.6057  143.1510  162.0051 C.ar    1  UNL1        0.0309
      6 C         139.7398  143.2401  161.0276 C.ar    1  UNL1        0.1701
      7 C         141.4920  145.0470  158.6219 C.3     1  UNL1        0.2526
      8 O         141.7407  144.5531  160.0163 O.3     1  UNL1       -0.4684
      9 C         137.7389  141.9272  162.0389 C.3     1  UNL1        0.1023
     10 N         138.1340  140.7514  162.8823 N.3     1  UNL1       -0.2689
     11 C         138.2335  141.0970  164.3385 C.3     1  UNL1        0.0724
     12 C         138.5771  140.3403  165.5872 C.3     1  UNL1        0.0173
     13 C         138.9634  138.9244  165.8968 C.3     1  UNL1        0.0014
     14 C         139.1662  137.6787  165.0861 C.3     1  UNL1        0.0001
     15 C         139.0667  137.3331  163.6299 C.3     1  UNL1        0.0014
     16 C         138.7231  138.0898  162.3813 C.3     1  UNL1        0.0173
     17 C         138.3368  139.5057  162.0716 C.3     1  UNL1        0.0724
     18 O         140.0072  142.1055  160.0837 O.3     1  UNL1       -0.4662
     19 C         141.3169  141.3762  160.1395 C.3     1  UNL1        0.2515
     20 C         141.7126  140.6398  161.3849 C.ar    1  UNL1        0.1097
     21 C         142.1824  139.2171  161.4565 C.ar    1  UNL1        0.0553
     22 S         142.4682  138.8950  162.8933 S.2     1  UNL1       -0.0662
     23 C         142.1749  140.1186  163.7099 C.ar    1  UNL1        0.1105
     24 N         141.7080  141.1970  162.7777 N.ar    1  UNL1       -0.2390
     25 C         142.3227  140.2421  165.1974 C.ar    1  UNL1        0.0239
     26 C         142.1428  141.5753  165.8609 C.ar    1  UNL1        0.0029
     27 C         142.2906  141.6989  167.3485 C.ar    1  UNL1        0.0115
     28 C         142.6183  140.4892  168.1726 C.ar    1  UNL1        0.0577
     29 CL        142.7661  140.6128  169.6603 Cl      1  UNL1       -0.0822
     30 C         142.7981  139.1560  167.5092 C.ar    1  UNL1        0.0115
     31 C         142.6504  139.0324  166.0217 C.ar    1  UNL1        0.0029
@<TRIPOS>BOND
     1     7     8    1
     2     8     1    1
     3     1     2   ar
     4     2     3   ar
     5     3     4   ar
     6     4     5   ar
     7     5     9    1
     8     9    10    1
     9    10    11    1
    10    11    12    1
    11    12    13    1
    12    13    14    1
    13    14    15    1
    14    15    16    1
    15    16    17    1
    16     5     6   ar
    17     6    18    1
    18    18    19    1
    19    19    20    1
    20    20    21   ar
    21    21    22   ar
    22    22    23   ar
    23    23    25    1
    24    25    26   ar
    25    26    27   ar
    26    27    28   ar
    27    28    29    1
    28    28    30   ar
    29    30    31   ar
    30    23    24   ar
    31     6     1   ar
    32    24    20   ar
    33    17    10    1
    34    31    25   ar
@<TRIPOS>MOLECULE
*****
 31 34 0 0 0
SMALL
GASTEIGER

@<TRIPOS>ATOM
      1 C         144.0908  139.8242  162.8809 C.ar    1  UNL1        0.1721
      2 C         145.2796  140.2337  163.6989 C.ar    1  UNL1        0.0400
      3 C         145.5593  141.6875  163.9401 C.ar    1  UNL1        0.0030
      4 C         144.6501  142.7319  163.3632 C.ar    1  UNL1        0.0003
      5 C         143.4613  142.3224  162.5453 C.ar    1  UNL1        0.0309
      6 C         143.1817  140.8687  162.3041 C.ar    1  UNL1        0.1701
      7 C         144.1046  137.7622  161.3004 C.3     1  UNL1        0.2526
      8 O         143.8112  138.3704  162.6398 O.3     1  UNL1       -0.4684
      9 C         142.5522  143.3668  161.9685 C.3     1  UNL1        0.1023
     10 N         141.1806  143.5668  162.5419 N.3     1  UNL1       -0.2689
     11 C         140.0969  143.1126  161.6096 C.3     1  UNL1        0.0724
     12 C         138.5982  143.0775  161.6623 C.3     1  UNL1        0.0173
     13 C         137.5626  143.4821  162.6691 C.3     1  UNL1        0.0014
     14 C         137.5965  144.0893  164.0402 C.3     1  UNL1        0.0001
     15 C         138.6803  144.5435  164.9725 C.3     1  UNL1        0.0014
     16 C         140.1789  144.5786  164.9198 C.3     1  UNL1        0.0173
     17 C         141.2146  144.1740  163.9130 C.3     1  UNL1        0.0724
     18 O         141.9929  140.4592  161.4862 O.3     1  UNL1       -0.4662
     19 C         140.9712  139.5248  162.0634 C.3     1  UNL1        0.2515
     20 C         140.2375  139.8978  163.3173 C.ar    1  UNL1        0.1097
     21 C         138.7480  139.9682  163.4796 C.ar    1  UNL1        0.0553
     22 S         138.4545  140.3798  164.8918 S.2     1  UNL1       -0.0662
     23 C         139.7626  140.5638  165.6025 C.ar    1  UNL1        0.1105
     24 N         140.8646  140.2659  164.6294 N.ar    1  UNL1       -0.2390
     25 C         139.9380  140.9737  167.0346 C.ar    1  UNL1        0.0239
     26 C         139.3573  140.1322  168.1321 C.ar    1  UNL1        0.0029
     27 C         139.5326  140.5421  169.5643 C.ar    1  UNL1        0.0115
     28 C         140.2887  141.7936  169.8990 C.ar    1  UNL1        0.0577
     29 CL        140.4640  142.2035  171.3313 Cl      1  UNL1       -0.0822
     30 C         140.8694  142.6351  168.8015 C.ar    1  UNL1        0.0115
     31 C         140.6941  142.2253  167.3694 C.ar    1  UNL1        0.0029
@<TRIPOS>BOND
     1     7     8    1
     2     8     1    1
     3     1     2   ar
     4     2     3   ar
     5     3     4   ar
     6     4     5   ar
     7     5     9    1
     8     9    10    1
     9    10    11    1
    10    11    12    1
    11    12    13    1
    12    13    14    1
    13    14    15    1
    14    15    16    1
    15    16    17    1
    16     5     6   ar
    17     6    18    1
    18    18    19    1
    19    19    20    1
    20    20    21   ar
    21    21    22   ar
    22    22    23   ar
    23    23    25    1
    24    25    26   ar
    25    26    27   ar
    26    27    28   ar
    27    28    29    1
    28    28    30   ar
    29    30    31   ar
    30    23    24   ar
    31     6     1   ar
    32    24    20   ar
    33    17    10    1
    34    31    25   ar
@<TRIPOS>MOLECULE
*****
 31 34 0 0 0
SMALL
GASTEIGER

@<TRIPOS>ATOM
      1 C         142.8834  143.7800  158.3076 C.ar    1  UNL1        0.1721
      2 C         142.2281  143.9908  156.9749 C.ar    1  UNL1        0.0400
      3 C         140.9104  144.7026  156.8912 C.ar    1  UNL1        0.0030
      4 C         140.2480  145.2035  158.1403 C.ar    1  UNL1        0.0003
      5 C         140.9033  144.9927  159.4730 C.ar    1  UNL1        0.0309
      6 C         142.2210  144.2810  159.5567 C.ar    1  UNL1        0.1701
      7 C         144.2697  141.5875  158.1615 C.3     1  UNL1        0.2526
      8 O         144.2011  143.0682  158.3911 O.3     1  UNL1       -0.4684
      9 C         140.2409  145.4937  160.7221 C.3     1  UNL1        0.1023
     10 N         139.4590  144.5497  161.5868 N.3     1  UNL1       -0.2689
     11 C         139.2675  145.0721  162.9798 C.3     1  UNL1        0.0724
     12 C         138.5899  144.5660  164.2186 C.3     1  UNL1        0.0173
     13 C         137.8230  143.3279  164.5775 C.3     1  UNL1        0.0014
     14 C         137.4161  142.0830  163.8463 C.3     1  UNL1        0.0001
     15 C         137.6076  141.5606  162.4534 C.3     1  UNL1        0.0014
     16 C         138.2853  142.0667  161.2146 C.3     1  UNL1        0.0173
     17 C         139.0522  143.3048  160.8557 C.3     1  UNL1        0.0724
     18 O         142.8763  144.0702  160.8894 O.3     1  UNL1       -0.4662
     19 C         142.9963  142.6863  161.4557 C.3     1  UNL1        0.2515
     20 C         142.3147  142.3428  162.7469 C.ar    1  UNL1        0.1097
     21 C         142.4116  143.1165  164.0282 C.ar    1  UNL1        0.0553
     22 S         141.5733  142.4170  165.0567 S.2     1  UNL1       -0.0662
     23 C         140.9581  141.2109  164.4111 C.ar    1  UNL1        0.1105
     24 N         141.4163  141.1650  162.9836 N.ar    1  UNL1       -0.2390
     25 C         140.0452  140.2240  165.0762 C.ar    1  UNL1        0.0239
     26 C         139.6064  138.9934  164.3393 C.ar    1  UNL1        0.0029
     27 C         138.6933  138.0064  165.0044 C.ar    1  UNL1        0.0115
     28 C         138.2191  138.2501  166.4065 C.ar    1  UNL1        0.0577
     29 CL        137.3061  137.2631  167.0716 Cl      1  UNL1       -0.0822
     30 C         138.6580  139.4807  167.1434 C.ar    1  UNL1        0.0115
     31 C         139.5709  140.4677  166.4783 C.ar    1  UNL1        0.0029
@<TRIPOS>BOND
     1     7     8    1
     2     8     1    1
     3     1     2   ar
     4     2     3   ar
     5     3     4   ar
     6     4     5   ar
     7     5     9    1
     8     9    10    1
     9    10    11    1
    10    11    12    1
    11    12    13    1
    12    13    14    1
    13    14    15    1
    14    15    16    1
    15    16    17    1
    16     5     6   ar
    17     6    18    1
    18    18    19    1
    19    19    20    1
    20    20    21   ar
    21    21    22   ar
    22    22    23   ar
    23    23    25    1
    24    25    26   ar
    25    26    27   ar
    26    27    28   ar
    27    28    29    1
    28    28    30   ar
    29    30    31   ar
    30    23    24   ar
    31     6     1   ar
    32    24    20   ar
    33    17    10    1
    34    31    25   ar
@<TRIPOS>MOLECULE
*****
 31 34 0 0 0
SMALL
GASTEIGER

@<TRIPOS>ATOM
      1 C         141.7466  144.1483  161.8963 C.ar    1  UNL1        0.1721
      2 C         141.2469  145.3814  162.5890 C.ar    1  UNL1        0.0400
      3 C         139.8273  145.4491  163.0686 C.ar    1  UNL1        0.0030
      4 C         138.9073  144.2836  162.8554 C.ar    1  UNL1        0.0003
      5 C         139.4070  143.0506  162.1627 C.ar    1  UNL1        0.0309
      6 C         140.8266  142.9829  161.6832 C.ar    1  UNL1        0.1701
      7 C         144.2890  143.9893  162.4073 C.3     1  UNL1        0.2526
      8 O         143.1663  144.0807  161.4168 O.3     1  UNL1       -0.4684
      9 C         138.4870  141.8852  161.9495 C.3     1  UNL1        0.1023
     10 N         138.5762  140.6855  162.8456 N.3     1  UNL1       -0.2689
     11 C         138.8199  139.4167  162.0836 C.3     1  UNL1        0.0724
     12 C         138.9892  137.9730  162.4538 C.3     1  UNL1        0.0173
     13 C         138.9847  137.2001  163.7393 C.3     1  UNL1        0.0014
     14 C         138.8092  137.5507  165.1871 C.3     1  UNL1        0.0001
     15 C         138.5655  138.8195  165.9491 C.3     1  UNL1        0.0014
     16 C         138.3962  140.2632  165.5789 C.3     1  UNL1        0.0173
     17 C         138.4007  141.0361  164.2934 C.3     1  UNL1        0.0724
     18 O         141.3263  141.7499  160.9905 O.3     1  UNL1       -0.4662
     19 C         142.4810  140.9831  161.5641 C.3     1  UNL1        0.2515
     20 C         142.4070  140.4529  162.9653 C.ar    1  UNL1        0.1097
     21 C         142.3941  139.0062  163.3611 C.ar    1  UNL1        0.0553
     22 S         142.3120  138.9356  164.8572 S.2     1  UNL1       -0.0662
     23 C         142.2741  140.3388  165.3861 C.ar    1  UNL1        0.1105
     24 N         142.3328  141.2765  164.2168 N.ar    1  UNL1       -0.2390
     25 C         142.1920  140.7347  166.8305 C.ar    1  UNL1        0.0239
     26 C         142.8374  142.0056  167.2977 C.ar    1  UNL1        0.0029
     27 C         142.7552  142.4015  168.7422 C.ar    1  UNL1        0.0115
     28 C         142.0277  141.5265  169.7195 C.ar    1  UNL1        0.0577
     29 CL        141.9456  141.9224  171.1640 Cl      1  UNL1       -0.0822
     30 C         141.3824  140.2556  169.2523 C.ar    1  UNL1        0.0115
     31 C         141.4645  139.8596  167.8078 C.ar    1  UNL1        0.0029
@<TRIPOS>BOND
     1     7     8    1
     2     8     1    1
     3     1     2   ar
     4     2     3   ar
     5     3     4   ar
     6     4     5   ar
     7     5     9    1
     8     9    10    1
     9    10    11    1
    10    11    12    1
    11    12    13    1
    12    13    14    1
    13    14    15    1
    14    15    16    1
    15    16    17    1
    16     5     6   ar
    17     6    18    1
    18    18    19    1
    19    19    20    1
    20    20    21   ar
    21    21    22   ar
    22    22    23   ar
    23    23    25    1
    24    25    26   ar
    25    26    27   ar
    26    27    28   ar
    27    28    29    1
    28    28    30   ar
    29    30    31   ar
    30    23    24   ar
    31     6     1   ar
    32    24    20   ar
    33    17    10    1
    34    31    25   ar
@<TRIPOS>MOLECULE
*****
 31 34 0 0 0
SMALL
GASTEIGER

@<TRIPOS>ATOM
      1 C         141.3242  138.5940  160.0097 C.ar    1  UNL1        0.1721
      2 C         139.8800  138.8742  159.7168 C.ar    1  UNL1        0.0400
      3 C         138.8339  138.5779  160.7502 C.ar    1  UNL1        0.0030
      4 C         139.2321  138.0014  162.0765 C.ar    1  UNL1        0.0003
      5 C         140.6763  137.7213  162.3695 C.ar    1  UNL1        0.0309
      6 C         141.7223  138.0176  161.3361 C.ar    1  UNL1        0.1701
      7 C         142.4659  138.0439  157.7417 C.3     1  UNL1        0.2526
      8 O         142.3702  138.8904  158.9763 O.3     1  UNL1       -0.4684
      9 C         141.0743  137.1449  163.6958 C.3     1  UNL1        0.1023
     10 N         141.0317  137.9991  164.9281 N.3     1  UNL1       -0.2689
     11 C         142.3989  138.2921  165.4711 C.3     1  UNL1        0.0724
     12 C         142.9326  139.0672  166.6391 C.3     1  UNL1        0.0173
     13 C         142.3202  139.8704  167.7480 C.3     1  UNL1        0.0014
     14 C         140.9203  140.2313  168.1481 C.3     1  UNL1        0.0001
     15 C         139.5531  139.9384  167.6052 C.3     1  UNL1        0.0014
     16 C         139.0194  139.1632  166.4371 C.3     1  UNL1        0.0173
     17 C         139.6319  138.3600  165.3283 C.3     1  UNL1        0.0724
     18 O         143.1665  137.7375  161.6290 O.3     1  UNL1       -0.4662
     19 C         144.1685  138.8533  161.5970 C.3     1  UNL1        0.2515
     20 C         143.8624  140.1557  162.2752 C.ar    1  UNL1        0.1097
     21 C         144.8447  141.2519  162.5637 C.ar    1  UNL1        0.0553
     22 S         144.1095  142.3642  163.2508 S.2     1  UNL1       -0.0662
     23 C         142.6727  141.9555  163.3872 C.ar    1  UNL1        0.1105
     24 N         142.5200  140.5906  162.7842 N.ar    1  UNL1       -0.2390
     25 C         141.5806  142.7689  164.0160 C.ar    1  UNL1        0.0239
     26 C         140.9197  143.8670  163.2367 C.ar    1  UNL1        0.0029
     27 C         139.8275  144.6805  163.8655 C.ar    1  UNL1        0.0115
     28 C         139.3961  144.3957  165.2736 C.ar    1  UNL1        0.0577
     29 CL        138.3038  145.2092  165.9024 Cl      1  UNL1       -0.0822
     30 C         140.0569  143.2975  166.0529 C.ar    1  UNL1        0.0115
     31 C         141.1491  142.4841  165.4241 C.ar    1  UNL1        0.0029
@<TRIPOS>BOND
     1     7     8    1
     2     8     1    1
     3     1     2   ar
     4     2     3   ar
     5     3     4   ar
     6     4     5   ar
     7     5     9    1
     8     9    10    1
     9    10    11    1
    10    11    12    1
    11    12    13    1
    12    13    14    1
    13    14    15    1
    14    15    16    1
    15    16    17    1
    16     5     6   ar
    17     6    18    1
    18    18    19    1
    19    19    20    1
    20    20    21   ar
    21    21    22   ar
    22    22    23   ar
    23    23    25    1
    24    25    26   ar
    25    26    27   ar
    26    27    28   ar
    27    28    29    1
    28    28    30   ar
    29    30    31   ar
    30    23    24   ar
    31     6     1   ar
    32    24    20   ar
    33    17    10    1
    34    31    25   ar
@<TRIPOS>MOLECULE
*****
 31 34 0 0 0
SMALL
GASTEIGER

@<TRIPOS>ATOM
      1 C         143.4875  139.2286  163.2368 C.ar    1  UNL1        0.1721
      2 C         144.6239  139.3587  164.2073 C.ar    1  UNL1        0.0400
      3 C         145.5577  140.5290  164.1163 C.ar    1  UNL1        0.0030
      4 C         145.3552  141.5692  163.0547 C.ar    1  UNL1        0.0003
      5 C         144.2188  141.4391  162.0842 C.ar    1  UNL1        0.0309
      6 C         143.2851  140.2688  162.1753 C.ar    1  UNL1        0.1701
      7 C         141.8749  137.7397  164.6270 C.3     1  UNL1        0.2526
      8 O         142.5537  138.0582  163.3279 O.3     1  UNL1       -0.4684
      9 C         144.0163  142.4794  161.0227 C.3     1  UNL1        0.1023
     10 N         142.8902  143.4632  161.1417 N.3     1  UNL1       -0.2689
     11 C         142.6683  143.9134  162.5552 C.3     1  UNL1        0.0724
     12 C         141.7145  144.8528  163.2318 C.3     1  UNL1        0.0173
     13 C         140.5876  145.7311  162.7751 C.3     1  UNL1        0.0014
     14 C         139.9477  146.0339  161.4527 C.3     1  UNL1        0.0001
     15 C         140.1697  145.5837  160.0392 C.3     1  UNL1        0.0014
     16 C         141.1234  144.6443  159.3626 C.3     1  UNL1        0.0173
     17 C         142.2503  143.7659  159.8193 C.3     1  UNL1        0.0724
     18 O         142.1487  140.1387  161.2048 O.3     1  UNL1       -0.4662
     19 C         140.8265  140.7790  161.5079 C.3     1  UNL1        0.2515
     20 C         140.2051  140.6114  162.8628 C.ar    1  UNL1        0.1097
     21 C         138.9785  139.8073  163.1770 C.ar    1  UNL1        0.0553
     22 S         138.7167  139.9174  164.6498 S.2     1  UNL1       -0.0662
     23 C         139.7815  140.7897  165.2460 C.ar    1  UNL1        0.1105
     24 N         140.7014  141.2185  164.1416 N.ar    1  UNL1       -0.2390
     25 C         139.9047  141.1667  166.6925 C.ar    1  UNL1        0.0239
     26 C         140.4165  142.5245  167.0727 C.ar    1  UNL1        0.0029
     27 C         140.5398  142.9016  168.5193 C.ar    1  UNL1        0.0115
     28 C         140.1512  141.9210  169.5857 C.ar    1  UNL1        0.0577
     29 CL        140.2745  142.2981  171.0323 Cl      1  UNL1       -0.0822
     30 C         139.6394  140.5632  169.2055 C.ar    1  UNL1        0.0115
     31 C         139.5161  140.1861  167.7590 C.ar    1  UNL1        0.0029
@<TRIPOS>BOND
     1     7     8    1
     2     8     1    1
     3     1     2   ar
     4     2     3   ar
     5     3     4   ar
     6     4     5   ar
     7     5     9    1
     8     9    10    1
     9    10    11    1
    10    11    12    1
    11    12    13    1
    12    13    14    1
    13    14    15    1
    14    15    16    1
    15    16    17    1
    16     5     6   ar
    17     6    18    1
    18    18    19    1
    19    19    20    1
    20    20    21   ar
    21    21    22   ar
    22    22    23   ar
    23    23    25    1
    24    25    26   ar
    25    26    27   ar
    26    27    28   ar
    27    28    29    1
    28    28    30   ar
    29    30    31   ar
    30    23    24   ar
    31     6     1   ar
    32    24    20   ar
    33    17    10    1
    34    31    25   ar
@<TRIPOS>MOLECULE
*****
 31 34 0 0 0
SMALL
GASTEIGER

@<TRIPOS>ATOM
      1 C         142.6484  143.6362  159.0113 C.ar    1  UNL1        0.1721
      2 C         142.5752  142.6443  157.8885 C.ar    1  UNL1        0.0400
      3 C         143.0623  141.2407  158.0947 C.ar    1  UNL1        0.0030
      4 C         143.6227  140.8291  159.4239 C.ar    1  UNL1        0.0003
      5 C         143.6959  141.8210  160.5467 C.ar    1  UNL1        0.0309
      6 C         143.2088  143.2245  160.3404 C.ar    1  UNL1        0.1701
      7 C         140.6897  145.3180  158.7185 C.3     1  UNL1        0.2526
      8 O         142.1612  145.0398  158.8050 O.3     1  UNL1       -0.4684
      9 C         144.2564  141.4093  161.8757 C.3     1  UNL1        0.1023
     10 N         143.4772  140.4859  162.7648 N.3     1  UNL1       -0.2689
     11 C         144.2918  139.9739  163.9155 C.3     1  UNL1        0.0724
     12 C         144.0329  139.0551  165.0725 C.3     1  UNL1        0.0173
     13 C         142.8521  138.2678  165.5581 C.3     1  UNL1        0.0014
     14 C         141.4411  138.0732  165.0878 C.3     1  UNL1        0.0001
     15 C         140.6265  138.5852  163.9371 C.3     1  UNL1        0.0014
     16 C         140.8854  139.5040  162.7801 C.3     1  UNL1        0.0173
     17 C         142.0662  140.2913  162.2945 C.3     1  UNL1        0.0724
     18 O         143.2820  144.2165  161.4632 O.3     1  UNL1       -0.4662
     19 C         142.0223  144.7128  162.1090 C.3     1  UNL1        0.2515
     20 C         141.3229  143.8703  163.1341 C.ar    1  UNL1        0.1097
     21 C         139.8614  143.5333  163.1503 C.ar    1  UNL1        0.0553
     22 S         139.5976  142.6716  164.3494 S.2     1  UNL1       -0.0662
     23 C         140.8962  142.4758  165.0743 C.ar    1  UNL1        0.1105
     24 N         141.9625  143.2167  164.3232 N.ar    1  UNL1       -0.2390
     25 C         141.0937  141.6792  166.3298 C.ar    1  UNL1        0.0239
     26 C         139.9640  140.8645  166.8866 C.ar    1  UNL1        0.0029
     27 C         140.1615  140.0678  168.1421 C.ar    1  UNL1        0.0115
     28 C         141.4887  140.0859  168.8408 C.ar    1  UNL1        0.0577
     29 CL        141.6861  139.2891  170.0964 Cl      1  UNL1       -0.0822
     30 C         142.6183  140.9005  168.2840 C.ar    1  UNL1        0.0115
     31 C         142.4209  141.6972  167.0285 C.ar    1  UNL1        0.0029
@<TRIPOS>BOND
     1     7     8    1
     2     8     1    1
     3     1     2   ar
     4     2     3   ar
     5     3     4   ar
     6     4     5   ar
     7     5     9    1
     8     9    10    1
     9    10    11    1
    10    11    12    1
    11    12    13    1
    12    13    14    1
    13    14    15    1
    14    15    16    1
    15    16    17    1
    16     5     6   ar
    17     6    18    1
    18    18    19    1
    19    19    20    1
    20    20    21   ar
    21    21    22   ar
    22    22    23   ar
    23    23    25    1
    24    25    26   ar
    25    26    27   ar
    26    27    28   ar
    27    28    29    1
    28    28    30   ar
    29    30    31   ar
    30    23    24   ar
    31     6     1   ar
    32    24    20   ar
    33    17    10    1
    34    31    25   ar
