@<TRIPOS>MOLECULE
*****
 25 27 0 0 0
SMALL
GASTEIGER

@<TRIPOS>ATOM
      1 C         139.8360  140.3726  168.4233 C.ar    1  UNL1        0.0395
      2 C         141.0840  140.3825  169.2554 C.ar    1  UNL1        0.0063
      3 C         142.3079  141.0965  168.7632 C.ar    1  UNL1        0.0376
      4 C         142.2838  141.8006  167.4390 C.ar    1  UNL1        0.1453
      5 C         141.0358  141.7908  166.6069 C.ar    1  UNL1        0.0376
      6 C         139.8119  141.0768  167.0991 C.ar    1  UNL1        0.0063
      7 N         136.8232  138.8653  170.3511 N.ar    1  UNL1       -0.1496
      8 N         136.6340  138.2544  168.9942 N.ar    1  UNL1       -0.0450
      9 N         137.7395  138.7448  168.1069 N.ar    1  UNL1       -0.1077
     10 C         138.6120  139.6586  168.9154 C.ar    1  UNL1        0.2058
     11 N         138.0457  139.7331  170.3024 N.ar    1  UNL1       -0.1297
     12 C         135.9442  138.6466  171.5468 C.3     1  UNL1        0.1666
     13 C         135.0021  137.0039  173.3255 C.3     1  UNL1        0.0190
     14 C         136.0815  137.3934  172.3594 C.3     1  UNL1        0.0775
     15 N         137.2982  136.5296  172.2061 N.3     1  UNL1       -0.3205
     16 H         137.9227  136.9419  171.5130 H       1  UNL1        0.1189
     17 H         137.0175  135.5982  171.8995 H       1  UNL1        0.1189
     18 O         143.5078  142.5147  166.9469 O.3     1  UNL1       -0.4535
     19 C         143.8439  142.5066  165.4851 C.ar    1  UNL1        0.1454
     20 C         143.8262  143.7872  164.7043 C.ar    1  UNL1        0.0384
     21 C         144.1624  143.7790  163.2424 C.ar    1  UNL1        0.0145
     22 C         144.5162  142.4903  162.5614 C.ar    1  UNL1        0.0579
     23 CL        144.8524  142.4822  161.0996 Cl      1  UNL1       -0.0822
     24 C         144.5340  141.2096  163.3422 C.ar    1  UNL1        0.0145
     25 C         144.1978  141.2177  164.8040 C.ar    1  UNL1        0.0384
@<TRIPOS>BOND
     1    14    13    1
     2    14    15    1
     3    14    12    1
     4    12     7    1
     5     7     8   ar
     6     8     9   ar
     7     9    10   ar
     8    10     1    1
     9     1     2   ar
    10     2     3   ar
    11     3     4   ar
    12     4    18    1
    13    18    19    1
    14    19    20   ar
    15    20    21   ar
    16    21    22   ar
    17    22    23    1
    18    22    24   ar
    19    24    25   ar
    20     4     5   ar
    21     5     6   ar
    22    10    11   ar
    23    11     7   ar
    24     6     1   ar
    25    25    19   ar
    26    15    16    1
    27    15    17    1
@<TRIPOS>MOLECULE
*****
 25 27 0 0 0
SMALL
GASTEIGER

@<TRIPOS>ATOM
      1 C         142.0024  141.6522  169.0101 C.ar    1  UNL1        0.0395
      2 C         140.5574  141.5009  169.3829 C.ar    1  UNL1        0.0063
      3 C         139.6744  140.5737  168.6015 C.ar    1  UNL1        0.0376
      4 C         140.2365  139.7977  167.4474 C.ar    1  UNL1        0.1453
      5 C         141.6815  139.9490  167.0746 C.ar    1  UNL1        0.0376
      6 C         142.5645  140.8763  167.8560 C.ar    1  UNL1        0.0063
      7 N         144.8471  143.7221  170.6499 N.ar    1  UNL1       -0.1496
      8 N         143.6413  144.2908  171.3377 N.ar    1  UNL1       -0.0450
      9 N         142.4290  143.5846  170.8071 N.ar    1  UNL1       -0.1077
     10 C         142.8854  142.5795  169.7914 C.ar    1  UNL1        0.2058
     11 N         144.3799  142.6645  169.6943 N.ar    1  UNL1       -0.1297
     12 C         146.2701  144.1381  170.8778 C.3     1  UNL1        0.1666
     13 C         147.7646  145.4654  172.5375 C.3     1  UNL1        0.0190
     14 C         146.5713  145.3998  171.6311 C.3     1  UNL1        0.0775
     15 N         145.6791  146.5958  171.4779 N.3     1  UNL1       -0.3205
     16 H         144.9237  146.3756  170.8289 H       1  UNL1        0.1189
     17 H         146.2211  147.3801  171.1153 H       1  UNL1        0.1189
     18 O         139.3535  138.8704  166.6661 O.3     1  UNL1       -0.4535
     19 C         138.8949  139.2532  165.2902 C.ar    1  UNL1        0.1454
     20 C         138.3581  140.6303  165.0346 C.ar    1  UNL1        0.0384
     21 C         137.8995  141.0131  163.6586 C.ar    1  UNL1        0.0145
     22 C         137.9776  140.0188  162.5383 C.ar    1  UNL1        0.0579
     23 CL        137.5190  140.4016  161.1624 Cl      1  UNL1       -0.0822
     24 C         138.5144  138.6416  162.7939 C.ar    1  UNL1        0.0145
     25 C         138.9730  138.2588  164.1698 C.ar    1  UNL1        0.0384
@<TRIPOS>BOND
     1    14    13    1
     2    14    15    1
     3    14    12    1
     4    12     7    1
     5     7     8   ar
     6     8     9   ar
     7     9    10   ar
     8    10     1    1
     9     1     2   ar
    10     2     3   ar
    11     3     4   ar
    12     4    18    1
    13    18    19    1
    14    19    20   ar
    15    20    21   ar
    16    21    22   ar
    17    22    23    1
    18    22    24   ar
    19    24    25   ar
    20     4     5   ar
    21     5     6   ar
    22    10    11   ar
    23    11     7   ar
    24     6     1   ar
    25    25    19   ar
    26    15    16    1
    27    15    17    1
@<TRIPOS>MOLECULE
*****
 25 27 0 0 0
SMALL
GASTEIGER

@<TRIPOS>ATOM
      1 C         140.0225  140.5580  168.1411 C.ar    1  UNL1        0.0395
      2 C         139.5854  140.1626  166.7618 C.ar    1  UNL1        0.0063
      3 C         140.2900  140.7234  165.5622 C.ar    1  UNL1        0.0376
      4 C         141.4316  141.6797  165.7420 C.ar    1  UNL1        0.1453
      5 C         141.8686  142.0751  167.1213 C.ar    1  UNL1        0.0376
      6 C         141.1641  141.5142  168.3209 C.ar    1  UNL1        0.0063
      7 N         137.5904  139.1185  170.8017 N.ar    1  UNL1       -0.1496
      8 N         138.8772  139.1498  171.5720 N.ar    1  UNL1       -0.0450
      9 N         139.9448  139.6928  170.6691 N.ar    1  UNL1       -0.1077
     10 C         139.3179  139.9972  169.3408 C.ar    1  UNL1        0.2058
     11 N         137.8628  139.6422  169.4228 N.ar    1  UNL1       -0.1297
     12 C         136.2641  138.6464  171.3195 C.3     1  UNL1        0.1666
     13 C         135.0687  137.3195  173.2063 C.3     1  UNL1        0.0190
     14 C         136.1941  137.4515  172.2235 C.3     1  UNL1        0.0775
     15 N         137.2497  136.3887  172.1448 N.3     1  UNL1       -0.3205
     16 H         137.9314  136.6389  171.4285 H       1  UNL1        0.1189
     17 H         136.8168  135.4967  171.9052 H       1  UNL1        0.1189
     18 O         142.1361  142.2405  164.5423 O.3     1  UNL1       -0.4535
     19 C         141.4925  143.3288  163.7353 C.ar    1  UNL1        0.1454
     20 C         141.9719  143.6134  162.3427 C.ar    1  UNL1        0.0384
     21 C         141.3282  144.7018  161.5357 C.ar    1  UNL1        0.0145
     22 C         140.2052  145.5055  162.1213 C.ar    1  UNL1        0.0579
     23 CL        139.5616  146.5938  161.3143 Cl      1  UNL1       -0.0822
     24 C         139.7259  145.2209  163.5139 C.ar    1  UNL1        0.0145
     25 C         140.3695  144.1326  164.3209 C.ar    1  UNL1        0.0384
@<TRIPOS>BOND
     1    14    13    1
     2    14    15    1
     3    14    12    1
     4    12     7    1
     5     7     8   ar
     6     8     9   ar
     7     9    10   ar
     8    10     1    1
     9     1     2   ar
    10     2     3   ar
    11     3     4   ar
    12     4    18    1
    13    18    19    1
    14    19    20   ar
    15    20    21   ar
    16    21    22   ar
    17    22    23    1
    18    22    24   ar
    19    24    25   ar
    20     4     5   ar
    21     5     6   ar
    22    10    11   ar
    23    11     7   ar
    24     6     1   ar
    25    25    19   ar
    26    15    16    1
    27    15    17    1
@<TRIPOS>MOLECULE
*****
 25 27 0 0 0
SMALL
GASTEIGER

@<TRIPOS>ATOM
      1 C         138.9470  139.3520  166.3747 C.ar    1  UNL1        0.0395
      2 C         139.0273  137.9383  165.8800 C.ar    1  UNL1        0.0063
      3 C         138.8105  137.6389  164.4263 C.ar    1  UNL1        0.0376
      4 C         138.5133  138.7534  163.4672 C.ar    1  UNL1        0.1453
      5 C         138.4330  140.1671  163.9619 C.ar    1  UNL1        0.0376
      6 C         138.6498  140.4665  165.4156 C.ar    1  UNL1        0.0063
      7 N         140.2060  140.3100  169.9191 N.ar    1  UNL1       -0.1496
      8 N         138.7890  139.9143  170.2120 N.ar    1  UNL1       -0.0450
      9 N         138.1450  139.5073  168.9198 N.ar    1  UNL1       -0.1077
     10 C         139.1638  139.6514  167.8284 C.ar    1  UNL1        0.2058
     11 N         140.4376  140.1475  168.4460 N.ar    1  UNL1       -0.1297
     12 C         141.2143  140.7848  170.9231 C.3     1  UNL1        0.1666
     13 C         143.3512  141.7806  169.8314 C.3     1  UNL1        0.0190
     14 C         142.6795  140.6926  170.6157 C.3     1  UNL1        0.0775
     15 N         143.4730  139.5124  171.0926 N.3     1  UNL1       -0.3205
     16 H         142.8619  138.8763  171.6048 H       1  UNL1        0.1189
     17 H         144.2222  139.8321  171.7065 H       1  UNL1        0.1189
     18 O         138.2964  138.4540  162.0134 O.3     1  UNL1       -0.4535
     19 C         139.4622  138.4337  161.0699 C.ar    1  UNL1        0.1454
     20 C         139.2606  138.7670  159.6213 C.ar    1  UNL1        0.0384
     21 C         140.4265  138.7467  158.6777 C.ar    1  UNL1        0.0145
     22 C         141.7939  138.3932  159.1826 C.ar    1  UNL1        0.0579
     23 CL        142.9597  138.3730  158.2390 Cl      1  UNL1       -0.0822
     24 C         141.9956  138.0600  160.6312 C.ar    1  UNL1        0.0145
     25 C         140.8298  138.0802  161.5748 C.ar    1  UNL1        0.0384
@<TRIPOS>BOND
     1    14    13    1
     2    14    15    1
     3    14    12    1
     4    12     7    1
     5     7     8   ar
     6     8     9   ar
     7     9    10   ar
     8    10     1    1
     9     1     2   ar
    10     2     3   ar
    11     3     4   ar
    12     4    18    1
    13    18    19    1
    14    19    20   ar
    15    20    21   ar
    16    21    22   ar
    17    22    23    1
    18    22    24   ar
    19    24    25   ar
    20     4     5   ar
    21     5     6   ar
    22    10    11   ar
    23    11     7   ar
    24     6     1   ar
    25    25    19   ar
    26    15    16    1
    27    15    17    1
@<TRIPOS>MOLECULE
*****
 25 27 0 0 0
SMALL
GASTEIGER

@<TRIPOS>ATOM
      1 C         138.8645  139.4893  165.8936 C.ar    1  UNL1        0.0395
      2 C         138.3933  140.4942  164.8846 C.ar    1  UNL1        0.0063
      3 C         138.2350  140.0961  163.4471 C.ar    1  UNL1        0.0376
      4 C         138.5479  138.6931  163.0186 C.ar    1  UNL1        0.1453
      5 C         139.0190  137.6882  164.0276 C.ar    1  UNL1        0.0376
      6 C         139.1773  138.0863  165.4650 C.ar    1  UNL1        0.0063
      7 N         139.7654  141.0229  169.3435 N.ar    1  UNL1       -0.1496
      8 N         138.7673  139.9768  169.7431 N.ar    1  UNL1       -0.0450
      9 N         138.3084  139.2751  168.4993 N.ar    1  UNL1       -0.1077
     10 C         139.0228  139.8874  167.3311 C.ar    1  UNL1        0.2058
     11 N         139.9232  140.9676  167.8528 N.ar    1  UNL1       -0.1297
     12 C         140.4801  141.9599  170.2716 C.3     1  UNL1        0.1666
     13 C         143.0292  142.3369  169.9404 C.3     1  UNL1        0.0190
     14 C         141.8977  141.6803  170.6743 C.3     1  UNL1        0.0775
     15 N         142.1838  140.7442  171.8109 N.3     1  UNL1       -0.3205
     16 H         141.3051  140.3925  172.1911 H       1  UNL1        0.1189
     17 H         142.6952  141.2412  172.5402 H       1  UNL1        0.1189
     18 O         138.3896  138.2950  161.5810 O.3     1  UNL1       -0.4535
     19 C         139.5416  138.4402  160.6314 C.ar    1  UNL1        0.1454
     20 C         140.9388  138.1584  161.0986 C.ar    1  UNL1        0.0384
     21 C         142.0908  138.3035  160.1489 C.ar    1  UNL1        0.0145
     22 C         141.8455  138.7304  158.7320 C.ar    1  UNL1        0.0579
     23 CL        142.9975  138.8756  157.7824 Cl      1  UNL1       -0.0822
     24 C         140.4483  139.0122  158.2648 C.ar    1  UNL1        0.0145
     25 C         139.2963  138.8671  159.2144 C.ar    1  UNL1        0.0384
@<TRIPOS>BOND
     1    14    13    1
     2    14    15    1
     3    14    12    1
     4    12     7    1
     5     7     8   ar
     6     8     9   ar
     7     9    10   ar
     8    10     1    1
     9     1     2   ar
    10     2     3   ar
    11     3     4   ar
    12     4    18    1
    13    18    19    1
    14    19    20   ar
    15    20    21   ar
    16    21    22   ar
    17    22    23    1
    18    22    24   ar
    19    24    25   ar
    20     4     5   ar
    21     5     6   ar
    22    10    11   ar
    23    11     7   ar
    24     6     1   ar
    25    25    19   ar
    26    15    16    1
    27    15    17    1
@<TRIPOS>MOLECULE
*****
 25 27 0 0 0
SMALL
GASTEIGER

@<TRIPOS>ATOM
      1 C         140.9502  145.0756  160.5576 C.ar    1  UNL1        0.0395
      2 C         139.9022  145.7641  161.3807 C.ar    1  UNL1        0.0063
      3 C         139.7217  145.3977  162.8240 C.ar    1  UNL1        0.0376
      4 C         140.5892  144.3427  163.4441 C.ar    1  UNL1        0.1453
      5 C         141.6372  143.6542  162.6210 C.ar    1  UNL1        0.0376
      6 C         141.8177  144.0207  161.1777 C.ar    1  UNL1        0.0063
      7 N         140.6742  146.1469  156.8371 N.ar    1  UNL1       -0.1496
      8 N         142.1432  145.8649  156.9493 N.ar    1  UNL1       -0.0450
      9 N         142.4254  145.4293  158.3567 N.ar    1  UNL1       -0.1077
     10 C         141.1308  145.4420  159.1142 C.ar    1  UNL1        0.2058
     11 N         140.0485  145.8855  158.1751 N.ar    1  UNL1       -0.1297
     12 C         139.9568  146.6091  155.6035 C.3     1  UNL1        0.1666
     13 C         139.6047  148.8500  154.3370 C.3     1  UNL1        0.0190
     14 C         139.3781  147.9917  155.5461 C.3     1  UNL1        0.0775
     15 N         138.5728  148.5160  156.6978 N.3     1  UNL1       -0.3205
     16 H         138.5206  147.8054  157.4277 H       1  UNL1        0.1189
     17 H         137.6316  148.7450  156.3783 H       1  UNL1        0.1189
     18 O         140.4086  143.9763  164.8875 O.3     1  UNL1       -0.4535
     19 C         139.8186  142.6473  165.2557 C.ar    1  UNL1        0.1454
     20 C         138.8139  141.9964  164.3519 C.ar    1  UNL1        0.0384
     21 C         138.2239  140.6673  164.7203 C.ar    1  UNL1        0.0145
     22 C         138.6387  139.9892  165.9923 C.ar    1  UNL1        0.0579
     23 CL        138.0487  138.6602  166.3605 Cl      1  UNL1       -0.0822
     24 C         139.6434  140.6401  166.8961 C.ar    1  UNL1        0.0145
     25 C         140.2334  141.9691  166.5278 C.ar    1  UNL1        0.0384
@<TRIPOS>BOND
     1    14    13    1
     2    14    15    1
     3    14    12    1
     4    12     7    1
     5     7     8   ar
     6     8     9   ar
     7     9    10   ar
     8    10     1    1
     9     1     2   ar
    10     2     3   ar
    11     3     4   ar
    12     4    18    1
    13    18    19    1
    14    19    20   ar
    15    20    21   ar
    16    21    22   ar
    17    22    23    1
    18    22    24   ar
    19    24    25   ar
    20     4     5   ar
    21     5     6   ar
    22    10    11   ar
    23    11     7   ar
    24     6     1   ar
    25    25    19   ar
    26    15    16    1
    27    15    17    1
@<TRIPOS>MOLECULE
*****
 25 27 0 0 0
SMALL
GASTEIGER

@<TRIPOS>ATOM
      1 C         139.0164  139.4787  166.3012 C.ar    1  UNL1        0.0395
      2 C         138.4872  140.5143  165.3539 C.ar    1  UNL1        0.0063
      3 C         138.2056  140.1507  163.9262 C.ar    1  UNL1        0.0376
      4 C         138.4532  138.7515  163.4457 C.ar    1  UNL1        0.1453
      5 C         138.9824  137.7158  164.3930 C.ar    1  UNL1        0.0376
      6 C         139.2640  138.0794  165.8207 C.ar    1  UNL1        0.0063
      7 N         140.3702  140.7332  169.7157 N.ar    1  UNL1       -0.1496
      8 N         139.0922  140.0701  170.1366 N.ar    1  UNL1       -0.0450
      9 N         138.4296  139.5194  168.9088 N.ar    1  UNL1       -0.1077
     10 C         139.2980  139.8422  167.7290 C.ar    1  UNL1        0.2058
     11 N         140.4973  140.5924  168.2278 N.ar    1  UNL1       -0.1297
     12 C         141.3492  141.4171  170.6234 C.3     1  UNL1        0.1666
     13 C         140.6404  143.7913  169.8421 C.3     1  UNL1        0.0190
     14 C         141.6705  142.8684  170.4229 C.3     1  UNL1        0.0775
     15 N         143.0218  143.3969  170.8030 N.3     1  UNL1       -0.3205
     16 H         143.5905  142.6379  171.1784 H       1  UNL1        0.1189
     17 H         142.9159  144.1242  171.5103 H       1  UNL1        0.1189
     18 O         138.1716  138.3879  162.0179 O.3     1  UNL1       -0.4535
     19 C         138.6843  139.2566  160.9077 C.ar    1  UNL1        0.1454
     20 C         137.7201  139.9863  160.0201 C.ar    1  UNL1        0.0384
     21 C         138.2329  140.8549  158.9098 C.ar    1  UNL1        0.0145
     22 C         139.7097  140.9938  158.6872 C.ar    1  UNL1        0.0579
     23 CL        140.2224  141.8625  157.5770 Cl      1  UNL1       -0.0822
     24 C         140.6739  140.2641  159.5748 C.ar    1  UNL1        0.0145
     25 C         140.1612  139.3955  160.6851 C.ar    1  UNL1        0.0384
@<TRIPOS>BOND
     1    14    13    1
     2    14    15    1
     3    14    12    1
     4    12     7    1
     5     7     8   ar
     6     8     9   ar
     7     9    10   ar
     8    10     1    1
     9     1     2   ar
    10     2     3   ar
    11     3     4   ar
    12     4    18    1
    13    18    19    1
    14    19    20   ar
    15    20    21   ar
    16    21    22   ar
    17    22    23    1
    18    22    24   ar
    19    24    25   ar
    20     4     5   ar
    21     5     6   ar
    22    10    11   ar
    23    11     7   ar
    24     6     1   ar
    25    25    19   ar
    26    15    16    1
    27    15    17    1
@<TRIPOS>MOLECULE
*****
 25 27 0 0 0
SMALL
GASTEIGER

@<TRIPOS>ATOM
      1 C         143.1323  138.6258  162.7046 C.ar    1  UNL1        0.0395
      2 C         144.3218  139.2673  163.3555 C.ar    1  UNL1        0.0063
      3 C         144.4320  139.2990  164.8510 C.ar    1  UNL1        0.0376
      4 C         143.3528  138.6892  165.6957 C.ar    1  UNL1        0.1453
      5 C         142.1634  138.0477  165.0449 C.ar    1  UNL1        0.0376
      6 C         142.0531  138.0160  163.5493 C.ar    1  UNL1        0.0063
      7 N         142.1463  138.2987  158.9647 N.ar    1  UNL1       -0.1496
      8 N         143.5584  138.7917  158.8501 N.ar    1  UNL1       -0.0450
      9 N         144.0995  138.9742  160.2371 N.ar    1  UNL1       -0.1077
     10 C         143.0220  138.5940  161.2089 C.ar    1  UNL1        0.2058
     11 N         141.8148  138.1766  160.4226 N.ar    1  UNL1       -0.1297
     12 C         141.2271  137.9833  157.8221 C.3     1  UNL1        0.1666
     13 C         140.7618  136.7300  155.5944 C.3     1  UNL1        0.0190
     14 C         141.6275  136.9644  156.7967 C.3     1  UNL1        0.0775
     15 N         142.8938  136.1800  156.9735 N.3     1  UNL1       -0.3205
     16 H         143.3530  136.4661  157.8382 H       1  UNL1        0.1189
     17 H         143.5155  136.3555  156.1842 H       1  UNL1        0.1189
     18 O         143.4632  138.7210  167.1914 O.3     1  UNL1       -0.4535
     19 C         142.5543  139.6059  167.9918 C.ar    1  UNL1        0.1454
     20 C         142.1745  139.2214  169.3911 C.ar    1  UNL1        0.0384
     21 C         141.2656  140.1064  170.1916 C.ar    1  UNL1        0.0145
     22 C         140.7364  141.3758  169.5928 C.ar    1  UNL1        0.0579
     23 CL        139.8275  142.2607  170.3932 Cl      1  UNL1       -0.0822
     24 C         141.1161  141.7602  168.1935 C.ar    1  UNL1        0.0145
     25 C         142.0250  140.8753  167.3930 C.ar    1  UNL1        0.0384
@<TRIPOS>BOND
     1    14    13    1
     2    14    15    1
     3    14    12    1
     4    12     7    1
     5     7     8   ar
     6     8     9   ar
     7     9    10   ar
     8    10     1    1
     9     1     2   ar
    10     2     3   ar
    11     3     4   ar
    12     4    18    1
    13    18    19    1
    14    19    20   ar
    15    20    21   ar
    16    21    22   ar
    17    22    23    1
    18    22    24   ar
    19    24    25   ar
    20     4     5   ar
    21     5     6   ar
    22    10    11   ar
    23    11     7   ar
    24     6     1   ar
    25    25    19   ar
    26    15    16    1
    27    15    17    1
@<TRIPOS>MOLECULE
*****
 25 27 0 0 0
SMALL
GASTEIGER

@<TRIPOS>ATOM
      1 C         138.5645  139.3529  162.4221 C.ar    1  UNL1        0.0395
      2 C         138.8880  138.0997  163.1803 C.ar    1  UNL1        0.0063
      3 C         138.8216  138.0914  164.6787 C.ar    1  UNL1        0.0376
      4 C         138.4318  139.3364  165.4191 C.ar    1  UNL1        0.1453
      5 C         138.1084  140.5896  164.6609 C.ar    1  UNL1        0.0376
      6 C         138.1747  140.5978  163.1625 C.ar    1  UNL1        0.0063
      7 N         139.3476  138.9450  158.6424 N.ar    1  UNL1       -0.1496
      8 N         138.1181  139.8029  158.5928 N.ar    1  UNL1       -0.0450
      9 N         137.6751  140.0601  160.0026 N.ar    1  UNL1       -0.1077
     10 C         138.6308  139.3612  160.9236 C.ar    1  UNL1        0.2058
     11 N         139.6645  138.6720  160.0829 N.ar    1  UNL1       -0.1297
     12 C         140.1239  138.4475  157.4593 C.3     1  UNL1        0.1666
     13 C         139.2141  139.0854  155.1108 C.3     1  UNL1        0.0190
     14 C         139.4071  138.0692  156.1971 C.3     1  UNL1        0.0775
     15 N         138.8832  136.6747  156.0213 N.3     1  UNL1       -0.3205
     16 H         139.1012  136.1225  156.8507 H       1  UNL1        0.1189
     17 H         139.3199  136.2479  155.2043 H       1  UNL1        0.1189
     18 O         138.3655  139.3281  166.9176 O.3     1  UNL1       -0.4535
     19 C         139.5406  139.7976  167.7230 C.ar    1  UNL1        0.1454
     20 C         140.9040  139.8505  167.0997 C.ar    1  UNL1        0.0384
     21 C         142.0792  140.3200  167.9051 C.ar    1  UNL1        0.0145
     22 C         141.8910  140.7364  169.3338 C.ar    1  UNL1        0.0579
     23 CL        143.0661  141.2059  170.1391 Cl      1  UNL1       -0.0822
     24 C         140.5276  140.6835  169.9571 C.ar    1  UNL1        0.0145
     25 C         139.3525  140.2141  169.1517 C.ar    1  UNL1        0.0384
@<TRIPOS>BOND
     1    14    13    1
     2    14    15    1
     3    14    12    1
     4    12     7    1
     5     7     8   ar
     6     8     9   ar
     7     9    10   ar
     8    10     1    1
     9     1     2   ar
    10     2     3   ar
    11     3     4   ar
    12     4    18    1
    13    18    19    1
    14    19    20   ar
    15    20    21   ar
    16    21    22   ar
    17    22    23    1
    18    22    24   ar
    19    24    25   ar
    20     4     5   ar
    21     5     6   ar
    22    10    11   ar
    23    11     7   ar
    24     6     1   ar
    25    25    19   ar
    26    15    16    1
    27    15    17    1
