@<TRIPOS>MOLECULE
*****
 29 31 0 0 0
SMALL
GASTEIGER

@<TRIPOS>ATOM
      1 O         141.5138  143.2356  162.0528 O.2     1  UNL1       -0.2525
      2 C         141.9001  144.3592  162.9684 C.2     1  UNL1        0.3056
      3 N         141.2203  145.6909  162.8496 N.am    1  UNL1       -0.2872
      4 N         142.9662  144.1510  164.0028 N.am    1  UNL1       -0.2512
      5 H         141.4738  146.4284  163.4505 H       1  UNL1        0.1510
      6 H         143.2198  144.8885  164.6037 H       1  UNL1        0.1579
      7 C         143.6462  142.8192  164.1216 C.ar    1  UNL1        0.1696
      8 N         145.0577  142.6523  163.6423 N.ar    1  UNL1       -0.2259
      9 C         145.7376  141.3206  163.7611 C.ar    1  UNL1        0.1005
     10 C         145.0060  140.1557  164.3592 C.ar    1  UNL1        0.0239
     11 C         143.5945  140.3226  164.8385 C.ar    1  UNL1        0.0414
     12 C         142.9145  141.6543  164.7197 C.ar    1  UNL1        0.1706
     13 O         141.5030  141.8212  165.1991 O.3     1  UNL1       -0.4678
     14 C         140.9122  140.8257  166.1528 C.3     1  UNL1        0.2321
     15 C         140.4974  141.2589  167.5277 C.ar    1  UNL1        0.0212
     16 C         139.7959  140.2950  168.4381 C.ar    1  UNL1       -0.0007
     17 C         139.3811  140.7283  169.8129 C.ar    1  UNL1       -0.0002
     18 C         139.6679  142.1255  170.2774 C.ar    1  UNL1       -0.0000
     19 C         140.3694  143.0894  169.3670 C.ar    1  UNL1       -0.0002
     20 C         140.7841  142.6561  167.9921 C.ar    1  UNL1       -0.0007
     21 C         140.1541  145.8992  161.8152 C.3     1  UNL1        0.1082
     22 C         138.7190  145.6198  162.1505 C.3     1  UNL1        0.0937
     23 N         138.3186  144.2697  162.6672 N.3     1  UNL1       -0.2689
     24 C         138.1871  144.0405  164.1437 C.3     1  UNL1        0.0895
     25 C         137.7867  142.6904  164.6604 C.3     1  UNL1        0.0862
     26 N         137.5179  141.5695  163.7006 N.3     1  UNL1       -0.2951
     27 C         137.6495  141.7987  162.2240 C.3     1  UNL1        0.0862
     28 C         138.0499  143.1487  161.7074 C.3     1  UNL1        0.0895
     29 H         136.5594  141.2631  163.8667 H       1  UNL1        0.1233
@<TRIPOS>BOND
     1     1     2    2
     2     2     3   am
     3     3    21    1
     4    21    22    1
     5    22    23    1
     6    23    24    1
     7    24    25    1
     8    25    26    1
     9    26    27    1
    10    27    28    1
    11     2     4   am
    12     4     7    1
    13     7     8   ar
    14     8     9   ar
    15     9    10   ar
    16    10    11   ar
    17    11    12   ar
    18    12    13    1
    19    13    14    1
    20    14    15    1
    21    15    16   ar
    22    16    17   ar
    23    17    18   ar
    24    18    19   ar
    25    19    20   ar
    26    28    23    1
    27    12     7   ar
    28    20    15   ar
    29     3     5    1
    30    26    29    1
    31     4     6    1
@<TRIPOS>MOLECULE
*****
 29 31 0 0 0
SMALL
GASTEIGER

@<TRIPOS>ATOM
      1 O         142.3513  141.6542  162.9974 O.2     1  UNL1       -0.2525
      2 C         142.7534  142.0636  164.3833 C.2     1  UNL1        0.3056
      3 N         144.1054  141.6883  164.9136 N.am    1  UNL1       -0.2872
      4 N         141.8035  142.8482  165.2388 N.am    1  UNL1       -0.2512
      5 H         144.3693  141.9570  165.8232 H       1  UNL1        0.1510
      6 H         142.0675  143.1169  166.1484 H       1  UNL1        0.1579
      7 C         140.4515  143.2235  164.7085 C.ar    1  UNL1        0.1696
      8 N         140.2002  144.6173  164.2142 N.ar    1  UNL1       -0.2259
      9 C         138.8482  144.9926  163.6838 C.ar    1  UNL1        0.1005
     10 C         137.7476  143.9742  163.6478 C.ar    1  UNL1        0.0239
     11 C         137.9989  142.5805  164.1422 C.ar    1  UNL1        0.0414
     12 C         139.3508  142.2051  164.6725 C.ar    1  UNL1        0.1706
     13 O         139.6021  140.8114  165.1668 O.3     1  UNL1       -0.4678
     14 C         139.1602  140.4129  166.5437 C.3     1  UNL1        0.2321
     15 C         140.1807  140.1061  167.5995 C.ar    1  UNL1        0.0212
     16 C         141.5853  139.7566  167.2058 C.ar    1  UNL1       -0.0007
     17 C         142.6058  139.4499  168.2616 C.ar    1  UNL1       -0.0002
     18 C         142.2215  139.4926  169.7110 C.ar    1  UNL1       -0.0000
     19 C         140.8170  139.8421  170.1045 C.ar    1  UNL1       -0.0002
     20 C         139.7965  140.1489  169.0488 C.ar    1  UNL1       -0.0007
     21 C         145.0553  140.9036  164.0581 C.3     1  UNL1        0.1082
     22 C         144.9834  139.4055  164.0372 C.3     1  UNL1        0.0937
     23 N         143.8531  138.7187  163.3295 N.3     1  UNL1       -0.2689
     24 C         143.9312  138.4753  161.8514 C.3     1  UNL1        0.0895
     25 C         142.8009  137.7885  161.1438 C.3     1  UNL1        0.0862
     26 N         141.5926  137.3451  161.9142 N.3     1  UNL1       -0.2951
     27 C         141.5146  137.5886  163.3922 C.3     1  UNL1        0.0862
     28 C         142.6448  138.2754  164.0998 C.3     1  UNL1        0.0895
     29 H         141.5091  136.3379  161.7768 H       1  UNL1        0.1233
@<TRIPOS>BOND
     1     1     2    2
     2     2     3   am
     3     3    21    1
     4    21    22    1
     5    22    23    1
     6    23    24    1
     7    24    25    1
     8    25    26    1
     9    26    27    1
    10    27    28    1
    11     2     4   am
    12     4     7    1
    13     7     8   ar
    14     8     9   ar
    15     9    10   ar
    16    10    11   ar
    17    11    12   ar
    18    12    13    1
    19    13    14    1
    20    14    15    1
    21    15    16   ar
    22    16    17   ar
    23    17    18   ar
    24    18    19   ar
    25    19    20   ar
    26    28    23    1
    27    12     7   ar
    28    20    15   ar
    29     3     5    1
    30    26    29    1
    31     4     6    1
@<TRIPOS>MOLECULE
*****
 29 31 0 0 0
SMALL
GASTEIGER

@<TRIPOS>ATOM
      1 O         143.7653  141.9313  165.8981 O.2     1  UNL1       -0.2525
      2 C         143.8646  140.5880  165.2379 C.2     1  UNL1        0.3056
      3 N         144.7149  140.4147  164.0144 N.am    1  UNL1       -0.2872
      4 N         143.1136  139.4181  165.8012 N.am    1  UNL1       -0.2512
      5 H         144.7800  139.5331  163.5811 H       1  UNL1        0.1510
      6 H         143.1788  138.5365  165.3679 H       1  UNL1        0.1579
      7 C         142.2633  139.5914  167.0248 C.ar    1  UNL1        0.1696
      8 N         142.8568  139.3820  168.3863 N.ar    1  UNL1       -0.2259
      9 C         142.0066  139.5552  169.6098 C.ar    1  UNL1        0.1005
     10 C         140.5629  139.9380  169.4718 C.ar    1  UNL1        0.0239
     11 C         139.9694  140.1474  168.1102 C.ar    1  UNL1        0.0414
     12 C         140.8196  139.9742  166.8867 C.ar    1  UNL1        0.1706
     13 O         140.2261  140.1836  165.5251 O.3     1  UNL1       -0.4678
     14 C         138.8449  140.7524  165.3884 C.3     1  UNL1        0.2321
     15 C         138.6295  142.0227  164.6204 C.ar    1  UNL1        0.0212
     16 C         138.0354  141.9753  163.2439 C.ar    1  UNL1       -0.0007
     17 C         137.8200  143.2457  162.4759 C.ar    1  UNL1       -0.0002
     18 C         138.1987  144.5634  163.0844 C.ar    1  UNL1       -0.0000
     19 C         138.7927  144.6107  164.4610 C.ar    1  UNL1       -0.0002
     20 C         139.0081  143.3404  165.2290 C.ar    1  UNL1       -0.0007
     21 C         145.4659  141.5847  163.4511 C.3     1  UNL1        0.1082
     22 C         144.9840  142.2518  162.1970 C.3     1  UNL1        0.0937
     23 N         143.8906  143.2764  162.2651 N.3     1  UNL1       -0.2689
     24 C         142.9227  143.4171  161.1279 C.3     1  UNL1        0.0895
     25 C         141.8293  144.4416  161.1960 C.3     1  UNL1        0.0862
     26 N         141.7038  145.3256  162.4014 N.3     1  UNL1       -0.2951
     27 C         142.6717  145.1849  163.5387 C.3     1  UNL1        0.0862
     28 C         143.7651  144.1603  163.4705 C.3     1  UNL1        0.0895
     29 H         140.7724  145.1682  162.7863 H       1  UNL1        0.1233
@<TRIPOS>BOND
     1     1     2    2
     2     2     3   am
     3     3    21    1
     4    21    22    1
     5    22    23    1
     6    23    24    1
     7    24    25    1
     8    25    26    1
     9    26    27    1
    10    27    28    1
    11     2     4   am
    12     4     7    1
    13     7     8   ar
    14     8     9   ar
    15     9    10   ar
    16    10    11   ar
    17    11    12   ar
    18    12    13    1
    19    13    14    1
    20    14    15    1
    21    15    16   ar
    22    16    17   ar
    23    17    18   ar
    24    18    19   ar
    25    19    20   ar
    26    28    23    1
    27    12     7   ar
    28    20    15   ar
    29     3     5    1
    30    26    29    1
    31     4     6    1
@<TRIPOS>MOLECULE
*****
 29 31 0 0 0
SMALL
GASTEIGER

@<TRIPOS>ATOM
      1 O         141.5883  139.7904  163.0990 O.2     1  UNL1       -0.2525
      2 C         142.3788  139.4105  164.3159 C.2     1  UNL1        0.3056
      3 N         142.0967  138.1161  165.0195 N.am    1  UNL1       -0.2872
      4 N         143.4513  140.3248  164.8291 N.am    1  UNL1       -0.2512
      5 H         142.6155  137.8668  165.8181 H       1  UNL1        0.1510
      6 H         143.9702  140.0754  165.6278 H       1  UNL1        0.1579
      7 C         143.7335  141.6192  164.1255 C.ar    1  UNL1        0.1696
      8 N         144.4326  141.6146  162.7984 N.ar    1  UNL1       -0.2259
      9 C         144.7147  142.9089  162.0948 C.ar    1  UNL1        0.1005
     10 C         144.2977  144.2078  162.7183 C.ar    1  UNL1        0.0239
     11 C         143.5986  144.2125  164.0454 C.ar    1  UNL1        0.0414
     12 C         143.3165  142.9182  164.7490 C.ar    1  UNL1        0.1706
     13 O         142.6174  142.9228  166.0761 O.3     1  UNL1       -0.4678
     14 C         141.1520  142.6120  166.1529 C.3     1  UNL1        0.2321
     15 C         140.5656  142.0712  167.4232 C.ar    1  UNL1        0.0212
     16 C         140.5601  142.9131  168.6647 C.ar    1  UNL1       -0.0007
     17 C         139.9737  142.3723  169.9350 C.ar    1  UNL1       -0.0002
     18 C         139.3928  140.9896  169.9638 C.ar    1  UNL1       -0.0000
     19 C         139.3983  140.1478  168.7224 C.ar    1  UNL1       -0.0002
     20 C         139.9847  140.6885  167.4521 C.ar    1  UNL1       -0.0007
     21 C         141.0241  137.2017  164.5062 C.3     1  UNL1        0.1082
     22 C         139.5818  137.5094  164.7801 C.3     1  UNL1        0.0937
     23 N         138.8186  138.4111  163.8556 N.3     1  UNL1       -0.2689
     24 C         138.3858  139.7698  164.3211 C.3     1  UNL1        0.0895
     25 C         137.6226  140.6713  163.3966 C.3     1  UNL1        0.0862
     26 N         137.2922  140.2143  162.0067 N.3     1  UNL1       -0.2951
     27 C         137.7250  138.8556  161.5412 C.3     1  UNL1        0.0862
     28 C         138.4882  137.9540  162.4657 C.3     1  UNL1        0.0895
     29 H         137.7088  140.8911  161.3673 H       1  UNL1        0.1233
@<TRIPOS>BOND
     1     1     2    2
     2     2     3   am
     3     3    21    1
     4    21    22    1
     5    22    23    1
     6    23    24    1
     7    24    25    1
     8    25    26    1
     9    26    27    1
    10    27    28    1
    11     2     4   am
    12     4     7    1
    13     7     8   ar
    14     8     9   ar
    15     9    10   ar
    16    10    11   ar
    17    11    12   ar
    18    12    13    1
    19    13    14    1
    20    14    15    1
    21    15    16   ar
    22    16    17   ar
    23    17    18   ar
    24    18    19   ar
    25    19    20   ar
    26    28    23    1
    27    12     7   ar
    28    20    15   ar
    29     3     5    1
    30    26    29    1
    31     4     6    1
@<TRIPOS>MOLECULE
*****
 29 31 0 0 0
SMALL
GASTEIGER

@<TRIPOS>ATOM
      1 O         142.2369  140.7077  163.3242 O.2     1  UNL1       -0.2525
      2 C         143.0144  139.7789  162.4394 C.2     1  UNL1        0.3056
      3 N         144.5042  139.6787  162.5823 N.am    1  UNL1       -0.2872
      4 N         142.3021  138.9505  161.4117 N.am    1  UNL1       -0.2512
      5 H         145.0145  139.0691  162.0015 H       1  UNL1        0.1510
      6 H         142.8124  138.3409  160.8309 H       1  UNL1        0.1579
      7 C         140.8123  139.0507  161.2687 C.ar    1  UNL1        0.1696
      8 N         140.2106  140.1443  160.4369 N.ar    1  UNL1       -0.2259
      9 C         138.7208  140.2446  160.2939 C.ar    1  UNL1        0.1005
     10 C         137.8327  139.2513  160.9828 C.ar    1  UNL1        0.0239
     11 C         138.4344  138.1577  161.8147 C.ar    1  UNL1        0.0414
     12 C         139.9242  138.0574  161.9576 C.ar    1  UNL1        0.1706
     13 O         140.5259  136.9638  162.7895 O.3     1  UNL1       -0.4678
     14 C         141.0537  137.2681  164.1602 C.3     1  UNL1        0.2321
     15 C         140.1781  137.9557  165.1655 C.ar    1  UNL1        0.0212
     16 C         138.7960  137.4383  165.4346 C.ar    1  UNL1       -0.0007
     17 C         137.9204  138.1259  166.4399 C.ar    1  UNL1       -0.0002
     18 C         138.4268  139.3307  167.1760 C.ar    1  UNL1       -0.0000
     19 C         139.8088  139.8480  166.9069 C.ar    1  UNL1       -0.0002
     20 C         140.6844  139.1605  165.9016 C.ar    1  UNL1       -0.0007
     21 C         145.2165  140.5072  163.6100 C.3     1  UNL1        0.1082
     22 C         145.6624  141.8992  163.2734 C.3     1  UNL1        0.0937
     23 N         144.6454  142.9632  162.9841 N.3     1  UNL1       -0.2689
     24 C         144.0527  143.0807  161.6112 C.3     1  UNL1        0.0895
     25 C         143.0357  144.1446  161.3219 C.3     1  UNL1        0.0862
     26 N         142.6115  145.0911  162.4055 N.3     1  UNL1       -0.2951
     27 C         143.2042  144.9737  163.7784 C.3     1  UNL1        0.0862
     28 C         144.2212  143.9097  164.0677 C.3     1  UNL1        0.0895
     29 H         141.6024  144.9854  162.5104 H       1  UNL1        0.1233
@<TRIPOS>BOND
     1     1     2    2
     2     2     3   am
     3     3    21    1
     4    21    22    1
     5    22    23    1
     6    23    24    1
     7    24    25    1
     8    25    26    1
     9    26    27    1
    10    27    28    1
    11     2     4   am
    12     4     7    1
    13     7     8   ar
    14     8     9   ar
    15     9    10   ar
    16    10    11   ar
    17    11    12   ar
    18    12    13    1
    19    13    14    1
    20    14    15    1
    21    15    16   ar
    22    16    17   ar
    23    17    18   ar
    24    18    19   ar
    25    19    20   ar
    26    28    23    1
    27    12     7   ar
    28    20    15   ar
    29     3     5    1
    30    26    29    1
    31     4     6    1
@<TRIPOS>MOLECULE
*****
 29 31 0 0 0
SMALL
GASTEIGER

@<TRIPOS>ATOM
      1 O         141.6998  143.2867  162.1503 O.2     1  UNL1       -0.2525
      2 C         142.0178  144.3425  163.1672 C.2     1  UNL1        0.3056
      3 N         141.3156  145.6671  163.1179 N.am    1  UNL1       -0.2872
      4 N         143.0379  144.0738  164.2335 N.am    1  UNL1       -0.2512
      5 H         141.5243  146.3600  163.7853 H       1  UNL1        0.1510
      6 H         143.2466  144.7668  164.9010 H       1  UNL1        0.1579
      7 C         143.7402  142.7492  164.2829 C.ar    1  UNL1        0.1696
      8 N         145.0652  142.5770  163.6014 N.ar    1  UNL1       -0.2259
      9 C         145.7675  141.2524  163.6507 C.ar    1  UNL1        0.1005
     10 C         145.1447  140.1002  164.3817 C.ar    1  UNL1        0.0239
     11 C         143.8196  140.2724  165.0633 C.ar    1  UNL1        0.0414
     12 C         143.1174  141.5969  165.0139 C.ar    1  UNL1        0.1706
     13 O         141.7923  141.7692  165.6955 O.3     1  UNL1       -0.4678
     14 C         140.5250  141.4319  164.9675 C.3     1  UNL1        0.2321
     15 C         139.8705  140.0988  165.1791 C.ar    1  UNL1        0.0212
     16 C         138.7509  139.9616  166.1679 C.ar    1  UNL1       -0.0007
     17 C         138.0964  138.6285  166.3795 C.ar    1  UNL1       -0.0002
     18 C         138.5617  137.4328  165.6024 C.ar    1  UNL1       -0.0000
     19 C         139.6813  137.5701  164.6137 C.ar    1  UNL1       -0.0002
     20 C         140.3357  138.9032  164.4021 C.ar    1  UNL1       -0.0007
     21 C         140.2954  145.9358  162.0515 C.3     1  UNL1        0.1082
     22 C         138.8597  145.5643  162.2764 C.3     1  UNL1        0.0937
     23 N         138.4316  144.1301  162.1767 N.3     1  UNL1       -0.2689
     24 C         138.6907  143.3558  160.9184 C.3     1  UNL1        0.0895
     25 C         138.2626  141.9217  160.8187 C.3     1  UNL1        0.0862
     26 N         137.5755  141.2618  161.9773 N.3     1  UNL1       -0.2951
     27 C         137.3164  142.0360  163.2356 C.3     1  UNL1        0.0862
     28 C         137.7445  143.4701  163.3353 C.3     1  UNL1        0.0895
     29 H         138.1458  140.4575  162.2386 H       1  UNL1        0.1233
@<TRIPOS>BOND
     1     1     2    2
     2     2     3   am
     3     3    21    1
     4    21    22    1
     5    22    23    1
     6    23    24    1
     7    24    25    1
     8    25    26    1
     9    26    27    1
    10    27    28    1
    11     2     4   am
    12     4     7    1
    13     7     8   ar
    14     8     9   ar
    15     9    10   ar
    16    10    11   ar
    17    11    12   ar
    18    12    13    1
    19    13    14    1
    20    14    15    1
    21    15    16   ar
    22    16    17   ar
    23    17    18   ar
    24    18    19   ar
    25    19    20   ar
    26    28    23    1
    27    12     7   ar
    28    20    15   ar
    29     3     5    1
    30    26    29    1
    31     4     6    1
@<TRIPOS>MOLECULE
*****
 29 31 0 0 0
SMALL
GASTEIGER

@<TRIPOS>ATOM
      1 O         141.2364  140.0738  161.8733 O.2     1  UNL1       -0.2525
      2 C         141.0960  139.1247  163.0264 C.2     1  UNL1        0.3056
      3 N         140.0453  138.0548  162.9935 N.am    1  UNL1       -0.2872
      4 N         142.0064  139.2456  164.2123 N.am    1  UNL1       -0.2512
      5 H         139.9532  137.4319  163.7503 H       1  UNL1        0.1510
      6 H         141.9142  138.6228  164.9691 H       1  UNL1        0.1579
      7 C         143.0572  140.3156  164.2452 C.ar    1  UNL1        0.1696
      8 N         144.4796  139.9805  163.9072 N.ar    1  UNL1       -0.2259
      9 C         145.5304  141.0504  163.9401 C.ar    1  UNL1        0.1005
     10 C         145.1587  142.4554  164.3110 C.ar    1  UNL1        0.0239
     11 C         143.7363  142.7906  164.6491 C.ar    1  UNL1        0.0414
     12 C         142.6855  141.7207  164.6162 C.ar    1  UNL1        0.1706
     13 O         141.2630  142.0558  164.9542 O.3     1  UNL1       -0.4678
     14 C         140.9546  142.8751  166.1722 C.3     1  UNL1        0.2321
     15 C         140.4554  142.2069  167.4189 C.ar    1  UNL1        0.0212
     16 C         140.4881  142.9400  168.7273 C.ar    1  UNL1       -0.0007
     17 C         139.9889  142.2718  169.9740 C.ar    1  UNL1       -0.0002
     18 C         139.4570  140.8706  169.9124 C.ar    1  UNL1       -0.0000
     19 C         139.4244  140.1376  168.6041 C.ar    1  UNL1       -0.0002
     20 C         139.9236  140.8058  167.3574 C.ar    1  UNL1       -0.0007
     21 C         139.1348  137.9338  161.8075 C.3     1  UNL1        0.1082
     22 C         137.8301  138.6734  161.7851 C.3     1  UNL1        0.0937
     23 N         137.8184  140.1734  161.7688 N.3     1  UNL1       -0.2689
     24 C         138.1411  140.9123  160.5040 C.3     1  UNL1        0.0895
     25 C         138.1294  142.4121  160.4878 C.3     1  UNL1        0.0862
     26 N         137.7950  143.1730  161.7364 N.3     1  UNL1       -0.2951
     27 C         137.4722  142.4341  163.0013 C.3     1  UNL1        0.0862
     28 C         137.4840  140.9343  163.0175 C.3     1  UNL1        0.0895
     29 H         136.9847  143.7533  161.5195 H       1  UNL1        0.1233
@<TRIPOS>BOND
     1     1     2    2
     2     2     3   am
     3     3    21    1
     4    21    22    1
     5    22    23    1
     6    23    24    1
     7    24    25    1
     8    25    26    1
     9    26    27    1
    10    27    28    1
    11     2     4   am
    12     4     7    1
    13     7     8   ar
    14     8     9   ar
    15     9    10   ar
    16    10    11   ar
    17    11    12   ar
    18    12    13    1
    19    13    14    1
    20    14    15    1
    21    15    16   ar
    22    16    17   ar
    23    17    18   ar
    24    18    19   ar
    25    19    20   ar
    26    28    23    1
    27    12     7   ar
    28    20    15   ar
    29     3     5    1
    30    26    29    1
    31     4     6    1
@<TRIPOS>MOLECULE
*****
 29 31 0 0 0
SMALL
GASTEIGER

@<TRIPOS>ATOM
      1 O         141.1973  140.4404  161.7662 O.2     1  UNL1       -0.2525
      2 C         141.5704  139.0882  162.2977 C.2     1  UNL1        0.3056
      3 N         140.7423  137.8887  161.9439 N.am    1  UNL1       -0.2872
      4 N         142.7717  138.9357  163.1829 N.am    1  UNL1       -0.2512
      5 H         140.9873  137.0012  162.2928 H       1  UNL1        0.1510
      6 H         143.0166  138.0482  163.5318 H       1  UNL1        0.1579
      7 C         143.5998  140.1353  163.5367 C.ar    1  UNL1        0.1696
      8 N         144.7595  140.5281  162.6702 N.ar    1  UNL1       -0.2259
      9 C         145.5877  141.7277  163.0239 C.ar    1  UNL1        0.1005
     10 C         145.2562  142.5344  164.2442 C.ar    1  UNL1        0.0239
     11 C         144.0965  142.1417  165.1108 C.ar    1  UNL1        0.0414
     12 C         143.2684  140.9421  164.7570 C.ar    1  UNL1        0.1706
     13 O         142.1087  140.5493  165.6236 O.3     1  UNL1       -0.4678
     14 C         142.3160  140.3067  167.0892 C.3     1  UNL1        0.2321
     15 C         142.0203  141.3946  168.0787 C.ar    1  UNL1        0.0212
     16 C         140.7165  142.1336  168.0136 C.ar    1  UNL1       -0.0007
     17 C         140.4208  143.2215  169.0031 C.ar    1  UNL1       -0.0002
     18 C         141.4289  143.5705  170.0576 C.ar    1  UNL1       -0.0000
     19 C         142.7326  142.8315  170.1227 C.ar    1  UNL1       -0.0002
     20 C         143.0283  141.7436  169.1332 C.ar    1  UNL1       -0.0007
     21 C         139.5410  138.0412  161.0587 C.3     1  UNL1        0.1082
     22 C         138.1987  138.3355  161.6600 C.3     1  UNL1        0.0937
     23 N         138.0480  139.4558  162.6461 N.3     1  UNL1       -0.2689
     24 C         138.3889  139.2350  164.0900 C.3     1  UNL1        0.0895
     25 C         138.2381  140.3552  165.0760 C.3     1  UNL1        0.0862
     26 N         137.7464  141.6963  164.6180 N.3     1  UNL1       -0.2951
     27 C         137.4055  141.9171  163.1741 C.3     1  UNL1        0.0862
     28 C         137.5563  140.7969  162.1881 C.3     1  UNL1        0.0895
     29 H         138.4717  142.3729  164.8561 H       1  UNL1        0.1233
@<TRIPOS>BOND
     1     1     2    2
     2     2     3   am
     3     3    21    1
     4    21    22    1
     5    22    23    1
     6    23    24    1
     7    24    25    1
     8    25    26    1
     9    26    27    1
    10    27    28    1
    11     2     4   am
    12     4     7    1
    13     7     8   ar
    14     8     9   ar
    15     9    10   ar
    16    10    11   ar
    17    11    12   ar
    18    12    13    1
    19    13    14    1
    20    14    15    1
    21    15    16   ar
    22    16    17   ar
    23    17    18   ar
    24    18    19   ar
    25    19    20   ar
    26    28    23    1
    27    12     7   ar
    28    20    15   ar
    29     3     5    1
    30    26    29    1
    31     4     6    1
@<TRIPOS>MOLECULE
*****
 29 31 0 0 0
SMALL
GASTEIGER

@<TRIPOS>ATOM
      1 O         139.6840  141.0050  161.6080 O.2     1  UNL1       -0.2525
      2 C         138.3650  141.1494  162.3077 C.2     1  UNL1        0.3056
      3 N         137.4029  139.9990  162.3392 N.am    1  UNL1       -0.2872
      4 N         138.0081  142.4441  162.9757 N.am    1  UNL1       -0.2512
      5 H         136.5373  140.0938  162.7984 H       1  UNL1        0.1510
      6 H         137.1424  142.5388  163.4349 H       1  UNL1        0.1579
      7 C         138.9702  143.5945  162.9442 C.ar    1  UNL1        0.1696
      8 N         138.7876  144.6977  161.9444 N.ar    1  UNL1       -0.2259
      9 C         139.7496  145.8481  161.9129 C.ar    1  UNL1        0.1005
     10 C         140.8942  145.8953  162.8811 C.ar    1  UNL1        0.0239
     11 C         141.0769  144.7921  163.8808 C.ar    1  UNL1        0.0414
     12 C         140.1149  143.6417  163.9124 C.ar    1  UNL1        0.1706
     13 O         140.2975  142.5385  164.9122 O.3     1  UNL1       -0.4678
     14 C         140.9625  142.8202  166.2268 C.3     1  UNL1        0.2321
     15 C         140.4448  142.1813  167.4813 C.ar    1  UNL1        0.0212
     16 C         139.8812  140.7918  167.4379 C.ar    1  UNL1       -0.0007
     17 C         139.3635  140.1529  168.6924 C.ar    1  UNL1       -0.0002
     18 C         139.4093  140.9035  169.9903 C.ar    1  UNL1       -0.0000
     19 C         139.9729  142.2929  170.0337 C.ar    1  UNL1       -0.0002
     20 C         140.4906  142.9318  168.7792 C.ar    1  UNL1       -0.0007
     21 C         137.7598  138.7042  161.6711 C.3     1  UNL1        0.1082
     22 C         138.4707  137.6328  162.4434 C.3     1  UNL1        0.0937
     23 N         139.8512  137.8818  162.9750 N.3     1  UNL1       -0.2689
     24 C         141.0348  137.7968  162.0575 C.3     1  UNL1        0.0895
     25 C         142.4151  138.0459  162.5891 C.3     1  UNL1        0.0862
     26 N         142.6118  138.3799  164.0381 N.3     1  UNL1       -0.2951
     27 C         141.4282  138.4649  164.9556 C.3     1  UNL1        0.0862
     28 C         140.0479  138.2159  164.4240 C.3     1  UNL1        0.0895
     29 H         143.0754  139.2879  164.0707 H       1  UNL1        0.1233
@<TRIPOS>BOND
     1     1     2    2
     2     2     3   am
     3     3    21    1
     4    21    22    1
     5    22    23    1
     6    23    24    1
     7    24    25    1
     8    25    26    1
     9    26    27    1
    10    27    28    1
    11     2     4   am
    12     4     7    1
    13     7     8   ar
    14     8     9   ar
    15     9    10   ar
    16    10    11   ar
    17    11    12   ar
    18    12    13    1
    19    13    14    1
    20    14    15    1
    21    15    16   ar
    22    16    17   ar
    23    17    18   ar
    24    18    19   ar
    25    19    20   ar
    26    28    23    1
    27    12     7   ar
    28    20    15   ar
    29     3     5    1
    30    26    29    1
    31     4     6    1
