@<TRIPOS>MOLECULE
*****
 33 36 0 0 0
SMALL
GASTEIGER

@<TRIPOS>ATOM
      1 C         140.6907  142.8483  164.8962 C.ar    1  UNL1        0.0290
      2 C         139.8341  144.0774  164.8221 C.ar    1  UNL1        0.0995
      3 N         139.8257  144.9117  163.5755 N.ar    1  UNL1       -0.2423
      4 C         140.6740  144.5168  162.4030 C.ar    1  UNL1        0.0995
      5 C         141.5305  143.2876  162.4772 C.ar    1  UNL1        0.0288
      6 C         141.5389  142.4534  163.7239 C.ar    1  UNL1        0.0714
      7 C         141.7898  141.3684  168.4108 C.ar    1  UNL1        0.1754
      8 C         141.7814  142.2025  167.1642 C.ar    1  UNL1        0.0403
      9 C         140.6990  142.0141  166.1429 C.ar    1  UNL1        0.0084
     10 C         139.6251  140.9915  166.3682 C.ar    1  UNL1        0.0403
     11 C         139.6335  140.1573  167.6148 C.ar    1  UNL1        0.1754
     12 C         140.7158  140.3458  168.6361 C.ar    1  UNL1        0.2061
     13 C         142.8894  142.7885  170.2881 C.3     1  UNL1        0.2526
     14 O         142.8721  141.5568  169.4321 O.3     1  UNL1       -0.4683
     15 O         138.5595  139.1346  167.8402 O.3     1  UNL1       -0.4683
     16 C         137.7750  138.6022  166.6778 C.3     1  UNL1        0.2526
     17 O         140.7241  139.5115  169.8828 O.3     1  UNL1       -0.4654
     18 C         140.1432  140.0566  171.1538 C.3     1  UNL1        0.2528
     19 C         142.3788  142.8927  161.3048 C.ar    1  UNL1        0.0022
     20 C         141.7472  142.2537  160.1037 C.ar    1  UNL1        0.0013
     21 C         142.5955  141.8587  158.9312 C.ar    1  UNL1        0.0145
     22 C         144.0752  142.1028  158.9600 C.ar    1  UNL1        0.0479
     23 C         144.7067  142.7419  160.1612 C.ar    1  UNL1        0.0145
     24 C         143.8585  143.1368  161.3336 C.ar    1  UNL1        0.0013
     25 N         144.9234  141.7079  157.7876 N.pl3   1  UNL1       -0.3047
     26 C         146.1346  142.5179  157.4316 C.3     1  UNL1        0.1079
     27 C         146.9829  142.1230  156.2591 C.3     1  UNL1        0.0903
     28 N         146.6199  140.9181  155.4428 N.3     1  UNL1       -0.2946
     29 C         145.4086  140.1081  155.7988 C.3     1  UNL1        0.0903
     30 C         144.5604  140.5030  156.9712 C.3     1  UNL1        0.1079
     31 H         147.4189  140.2852  155.4806 H       1  UNL1        0.1233
     32 C         142.3955  141.2243  163.7980 C.1     1  UNL1        0.1005
     33 N         143.2521  139.9951  163.8722 N.1     1  UNL1       -0.1908
@<TRIPOS>BOND
     1    13    14    1
     2    14     7    1
     3     7     8   ar
     4     8     9   ar
     5     9     1    1
     6     1     2   ar
     7     2     3   ar
     8     3     4   ar
     9     4     5   ar
    10     5    19    1
    11    19    20   ar
    12    20    21   ar
    13    21    22   ar
    14    22    25    1
    15    25    26    1
    16    26    27    1
    17    27    28    1
    18    28    29    1
    19    29    30    1
    20    22    23   ar
    21    23    24   ar
    22     5     6   ar
    23     6    32    1
    24    32    33    3
    25     9    10   ar
    26    10    11   ar
    27    11    15    1
    28    15    16    1
    29    11    12   ar
    30    12    17    1
    31    17    18    1
    32    12     7   ar
    33     6     1   ar
    34    24    19   ar
    35    30    25    1
    36    28    31    1
@<TRIPOS>MOLECULE
*****
 33 36 0 0 0
SMALL
GASTEIGER

@<TRIPOS>ATOM
      1 C         138.8999  141.3543  163.7155 C.ar    1  UNL1        0.0290
      2 C         137.8670  142.3646  163.3124 C.ar    1  UNL1        0.0995
      3 N         137.6824  142.7119  161.8649 N.ar    1  UNL1       -0.2423
      4 C         138.5307  142.0488  160.8204 C.ar    1  UNL1        0.0995
      5 C         139.5636  141.0385  161.2235 C.ar    1  UNL1        0.0288
      6 C         139.7482  140.6913  162.6711 C.ar    1  UNL1        0.0714
      7 C         138.5267  139.4993  167.2040 C.ar    1  UNL1        0.1754
      8 C         138.3421  139.8466  165.7565 C.ar    1  UNL1        0.0403
      9 C         139.0845  141.0070  165.1631 C.ar    1  UNL1        0.0084
     10 C         140.0115  141.8202  166.0171 C.ar    1  UNL1        0.0403
     11 C         140.1960  141.4730  167.4646 C.ar    1  UNL1        0.1754
     12 C         139.4536  140.3125  168.0581 C.ar    1  UNL1        0.2061
     13 C         137.3847  137.1817  166.9306 C.3     1  UNL1        0.2526
     14 O         137.7843  138.3388  167.7975 O.3     1  UNL1       -0.4683
     15 O         141.1230  142.2862  168.3188 O.3     1  UNL1       -0.4683
     16 C         140.5673  143.3060  169.2680 C.3     1  UNL1        0.2526
     17 O         139.6382  139.9652  169.5056 O.3     1  UNL1       -0.4654
     18 C         141.0017  139.6178  170.0256 C.3     1  UNL1        0.2528
     19 C         140.4118  140.3755  160.1791 C.ar    1  UNL1        0.0022
     20 C         139.9299  139.1257  159.5041 C.ar    1  UNL1        0.0013
     21 C         140.7782  138.4626  158.4596 C.ar    1  UNL1        0.0145
     22 C         142.1083  139.0494  158.0902 C.ar    1  UNL1        0.0479
     23 C         142.5902  140.2993  158.7653 C.ar    1  UNL1        0.0145
     24 C         141.7420  140.9623  159.8097 C.ar    1  UNL1        0.0013
     25 N         142.9566  138.3864  157.0458 N.pl3   1  UNL1       -0.3047
     26 C         143.8096  139.2175  156.1340 C.3     1  UNL1        0.1079
     27 C         144.6579  138.5545  155.0895 C.3     1  UNL1        0.0903
     28 N         144.6531  137.0603  154.9569 N.3     1  UNL1       -0.2946
     29 C         143.8000  136.2292  155.8689 C.3     1  UNL1        0.0903
     30 C         142.9518  136.8922  156.9133 C.3     1  UNL1        0.1079
     31 H         145.6156  136.7498  155.0900 H       1  UNL1        0.1233
     32 C         140.7810  139.6810  163.0742 C.1     1  UNL1        0.1005
     33 N         141.8139  138.6707  163.4773 N.1     1  UNL1       -0.1908
@<TRIPOS>BOND
     1    13    14    1
     2    14     7    1
     3     7     8   ar
     4     8     9   ar
     5     9     1    1
     6     1     2   ar
     7     2     3   ar
     8     3     4   ar
     9     4     5   ar
    10     5    19    1
    11    19    20   ar
    12    20    21   ar
    13    21    22   ar
    14    22    25    1
    15    25    26    1
    16    26    27    1
    17    27    28    1
    18    28    29    1
    19    29    30    1
    20    22    23   ar
    21    23    24   ar
    22     5     6   ar
    23     6    32    1
    24    32    33    3
    25     9    10   ar
    26    10    11   ar
    27    11    15    1
    28    15    16    1
    29    11    12   ar
    30    12    17    1
    31    17    18    1
    32    12     7   ar
    33     6     1   ar
    34    24    19   ar
    35    30    25    1
    36    28    31    1
@<TRIPOS>MOLECULE
*****
 33 36 0 0 0
SMALL
GASTEIGER

@<TRIPOS>ATOM
      1 C         138.9066  141.3745  163.7175 C.ar    1  UNL1        0.0290
      2 C         137.8720  142.3825  163.3131 C.ar    1  UNL1        0.0995
      3 N         137.6830  142.7234  161.8646 N.ar    1  UNL1       -0.2423
      4 C         138.5287  142.0563  160.8206 C.ar    1  UNL1        0.0995
      5 C         139.5633  141.0484  161.2250 C.ar    1  UNL1        0.0288
      6 C         139.7523  140.7075  162.6736 C.ar    1  UNL1        0.0714
      7 C         140.2086  141.5143  167.4640 C.ar    1  UNL1        0.1754
      8 C         140.0196  141.8551  166.0155 C.ar    1  UNL1        0.0403
      9 C         139.0956  141.0337  165.1661 C.ar    1  UNL1        0.0084
     10 C         138.3606  139.8714  165.7651 C.ar    1  UNL1        0.0403
     11 C         138.5496  139.5306  167.2136 C.ar    1  UNL1        0.1754
     12 C         139.4736  140.3520  168.0630 C.ar    1  UNL1        0.2061
     13 C         140.5713  143.3102  169.3060 C.3     1  UNL1        0.2526
     14 O         141.1326  142.3357  168.3134 O.3     1  UNL1       -0.4683
     15 O         137.8146  138.3683  167.8127 O.3     1  UNL1       -0.4683
     16 C         137.3771  137.2281  166.9418 C.3     1  UNL1        0.2526
     17 O         139.6625  140.0111  169.5115 O.3     1  UNL1       -0.4654
     18 C         141.0142  139.5992  170.0149 C.3     1  UNL1        0.2528
     19 C         140.4089  140.3813  160.1811 C.ar    1  UNL1        0.0022
     20 C         141.7382  140.9665  159.8064 C.ar    1  UNL1        0.0013
     21 C         142.5840  140.2994  158.7624 C.ar    1  UNL1        0.0145
     22 C         142.1003  139.0472  158.0931 C.ar    1  UNL1        0.0479
     23 C         140.7709  138.4620  158.4679 C.ar    1  UNL1        0.0145
     24 C         139.9253  139.1291  159.5118 C.ar    1  UNL1        0.0013
     25 N         142.9459  138.3801  157.0492 N.pl3   1  UNL1       -0.3047
     26 C         143.7901  139.2082  156.1263 C.3     1  UNL1        0.1079
     27 C         144.6358  138.5411  155.0823 C.3     1  UNL1        0.0903
     28 N         144.6372  137.0460  154.9612 N.3     1  UNL1       -0.2946
     29 C         143.7930  136.2180  155.8841 C.3     1  UNL1        0.0903
     30 C         142.9473  136.8850  156.9280 C.3     1  UNL1        0.1079
     31 H         145.6018  136.7410  155.0913 H       1  UNL1        0.1233
     32 C         140.7869  139.6995  163.0781 C.1     1  UNL1        0.1005
     33 N         141.8215  138.6916  163.4825 N.1     1  UNL1       -0.1908
@<TRIPOS>BOND
     1    13    14    1
     2    14     7    1
     3     7     8   ar
     4     8     9   ar
     5     9     1    1
     6     1     2   ar
     7     2     3   ar
     8     3     4   ar
     9     4     5   ar
    10     5    19    1
    11    19    20   ar
    12    20    21   ar
    13    21    22   ar
    14    22    25    1
    15    25    26    1
    16    26    27    1
    17    27    28    1
    18    28    29    1
    19    29    30    1
    20    22    23   ar
    21    23    24   ar
    22     5     6   ar
    23     6    32    1
    24    32    33    3
    25     9    10   ar
    26    10    11   ar
    27    11    15    1
    28    15    16    1
    29    11    12   ar
    30    12    17    1
    31    17    18    1
    32    12     7   ar
    33     6     1   ar
    34    24    19   ar
    35    30    25    1
    36    28    31    1
@<TRIPOS>MOLECULE
*****
 33 36 0 0 0
SMALL
GASTEIGER

@<TRIPOS>ATOM
      1 C         140.6221  142.7760  164.8342 C.ar    1  UNL1        0.0290
      2 C         139.7375  143.9841  164.7435 C.ar    1  UNL1        0.0995
      3 N         139.7061  144.7976  163.4837 N.ar    1  UNL1       -0.2423
      4 C         140.5592  144.4032  162.3146 C.ar    1  UNL1        0.0995
      5 C         141.4437  143.1951  162.4054 C.ar    1  UNL1        0.0288
      6 C         141.4751  142.3815  163.6652 C.ar    1  UNL1        0.0714
      7 C         139.6084  140.1392  167.6217 C.ar    1  UNL1        0.1754
      8 C         139.5770  140.9527  166.3619 C.ar    1  UNL1        0.0403
      9 C         140.6535  141.9624  166.0941 C.ar    1  UNL1        0.0084
     10 C         141.7614  142.1586  167.0861 C.ar    1  UNL1        0.0403
     11 C         141.7928  141.3450  168.3459 C.ar    1  UNL1        0.1754
     12 C         140.7163  140.3353  168.6137 C.ar    1  UNL1        0.2061
     13 C         137.7650  138.5302  166.7481 C.3     1  UNL1        0.2526
     14 O         138.5320  139.1294  167.8894 O.3     1  UNL1       -0.4683
     15 O         142.9007  141.5412  169.3380 O.3     1  UNL1       -0.4683
     16 C         142.8278  142.6623  170.3318 C.3     1  UNL1        0.2526
     17 O         140.7477  139.5217  169.8735 O.3     1  UNL1       -0.4654
     18 C         140.0569  140.0226  171.1072 C.3     1  UNL1        0.2528
     19 C         142.2968  142.8007  161.2364 C.ar    1  UNL1        0.0022
     20 C         143.7600  143.1306  161.2305 C.ar    1  UNL1        0.0013
     21 C         144.6131  142.7361  160.0615 C.ar    1  UNL1        0.0145
     22 C         144.0030  142.0117  158.8983 C.ar    1  UNL1        0.0479
     23 C         142.5397  141.6818  158.9042 C.ar    1  UNL1        0.0145
     24 C         141.6866  142.0762  160.0732 C.ar    1  UNL1        0.0013
     25 N         144.8560  141.6172  157.7293 N.pl3   1  UNL1       -0.3047
     26 C         146.0728  142.4232  157.3830 C.3     1  UNL1        0.1079
     27 C         146.9259  142.0287  156.2139 C.3     1  UNL1        0.0903
     28 N         146.5622  140.8283  155.3912 N.3     1  UNL1       -0.2946
     29 C         145.3454  140.0224  155.7376 C.3     1  UNL1        0.0903
     30 C         144.4923  140.4169  156.9066 C.3     1  UNL1        0.1079
     31 H         147.3582  140.1918  155.4313 H       1  UNL1        0.1233
     32 C         142.3597  141.1735  163.7560 C.1     1  UNL1        0.1005
     33 N         143.2442  139.9655  163.8468 N.1     1  UNL1       -0.1908
@<TRIPOS>BOND
     1    13    14    1
     2    14     7    1
     3     7     8   ar
     4     8     9   ar
     5     9     1    1
     6     1     2   ar
     7     2     3   ar
     8     3     4   ar
     9     4     5   ar
    10     5    19    1
    11    19    20   ar
    12    20    21   ar
    13    21    22   ar
    14    22    25    1
    15    25    26    1
    16    26    27    1
    17    27    28    1
    18    28    29    1
    19    29    30    1
    20    22    23   ar
    21    23    24   ar
    22     5     6   ar
    23     6    32    1
    24    32    33    3
    25     9    10   ar
    26    10    11   ar
    27    11    15    1
    28    15    16    1
    29    11    12   ar
    30    12    17    1
    31    17    18    1
    32    12     7   ar
    33     6     1   ar
    34    24    19   ar
    35    30    25    1
    36    28    31    1
@<TRIPOS>MOLECULE
*****
 33 36 0 0 0
SMALL
GASTEIGER

@<TRIPOS>ATOM
      1 C         140.9011  142.4679  160.5226 C.ar    1  UNL1        0.0290
      2 C         141.3275  143.8337  160.0724 C.ar    1  UNL1        0.0995
      3 N         141.8367  144.8283  161.0732 N.ar    1  UNL1       -0.2423
      4 C         141.9193  144.4572  162.5242 C.ar    1  UNL1        0.0995
      5 C         141.4928  143.0914  162.9744 C.ar    1  UNL1        0.0288
      6 C         140.9837  142.0967  161.9736 C.ar    1  UNL1        0.0714
      7 C         140.8249  139.4905  157.8999 C.ar    1  UNL1        0.1754
      8 C         141.3340  140.4850  158.9006 C.ar    1  UNL1        0.0403
      9 C         140.3919  141.4733  159.5218 C.ar    1  UNL1        0.0084
     10 C         138.9408  141.4670  159.1422 C.ar    1  UNL1        0.0403
     11 C         138.4317  140.4724  158.1414 C.ar    1  UNL1        0.1754
     12 C         139.3738  139.4841  157.5203 C.ar    1  UNL1        0.2061
     13 C         142.6859  137.6944  158.1464 C.3     1  UNL1        0.2526
     14 O         141.7670  138.5022  157.2787 O.3     1  UNL1       -0.4683
     15 O         136.9805  140.4661  157.7618 O.3     1  UNL1       -0.4683
     16 C         136.5123  141.2550  156.5751 C.3     1  UNL1        0.2526
     17 O         138.8646  138.4895  156.5194 O.3     1  UNL1       -0.4654
     18 C         138.9283  138.8009  155.0535 C.3     1  UNL1        0.2528
     19 C         141.5755  142.7202  164.4254 C.ar    1  UNL1        0.0022
     20 C         140.3997  142.9529  165.3272 C.ar    1  UNL1        0.0013
     21 C         140.4823  142.5817  166.7782 C.ar    1  UNL1        0.0145
     22 C         141.7407  141.9778  167.3274 C.ar    1  UNL1        0.0479
     23 C         142.9165  141.7450  166.4255 C.ar    1  UNL1        0.0145
     24 C         142.8339  142.1162  164.9746 C.ar    1  UNL1        0.0013
     25 N         141.8234  141.6066  168.7784 N.pl3   1  UNL1       -0.3047
     26 C         142.8082  140.5704  169.2325 C.3     1  UNL1        0.1079
     27 C         142.8909  140.1991  170.6835 C.3     1  UNL1        0.0903
     28 N         141.9887  140.8641  171.6804 N.3     1  UNL1       -0.2946
     29 C         141.0038  141.9004  171.2262 C.3     1  UNL1        0.0903
     30 C         140.9211  142.2716  169.7752 C.3     1  UNL1        0.1079
     31 H         142.5917  141.3131  172.3697 H       1  UNL1        0.1233
     32 C         140.5572  140.7309  162.4238 C.1     1  UNL1        0.1005
     33 N         140.1307  139.3651  162.8741 N.1     1  UNL1       -0.1908
@<TRIPOS>BOND
     1    13    14    1
     2    14     7    1
     3     7     8   ar
     4     8     9   ar
     5     9     1    1
     6     1     2   ar
     7     2     3   ar
     8     3     4   ar
     9     4     5   ar
    10     5    19    1
    11    19    20   ar
    12    20    21   ar
    13    21    22   ar
    14    22    25    1
    15    25    26    1
    16    26    27    1
    17    27    28    1
    18    28    29    1
    19    29    30    1
    20    22    23   ar
    21    23    24   ar
    22     5     6   ar
    23     6    32    1
    24    32    33    3
    25     9    10   ar
    26    10    11   ar
    27    11    15    1
    28    15    16    1
    29    11    12   ar
    30    12    17    1
    31    17    18    1
    32    12     7   ar
    33     6     1   ar
    34    24    19   ar
    35    30    25    1
    36    28    31    1
@<TRIPOS>MOLECULE
*****
 33 36 0 0 0
SMALL
GASTEIGER

@<TRIPOS>ATOM
      1 C         141.1486  142.0334  164.6422 C.ar    1  UNL1        0.0290
      2 C         140.9039  143.5050  164.4856 C.ar    1  UNL1        0.0995
      3 N         141.0195  144.1449  163.1339 N.ar    1  UNL1       -0.2423
      4 C         141.3798  143.3131  161.9387 C.ar    1  UNL1        0.0995
      5 C         141.6245  141.8415  162.0953 C.ar    1  UNL1        0.0288
      6 C         141.5089  141.2016  163.4471 C.ar    1  UNL1        0.0714
      7 C         139.6732  140.0017  167.7156 C.ar    1  UNL1        0.1754
      8 C         139.7889  140.6415  166.3638 C.ar    1  UNL1        0.0403
      9 C         141.0329  141.3936  165.9940 C.ar    1  UNL1        0.0084
     10 C         142.1613  141.5058  166.9759 C.ar    1  UNL1        0.0403
     11 C         142.0456  140.8660  168.3276 C.ar    1  UNL1        0.1754
     12 C         140.8016  140.1140  168.6975 C.ar    1  UNL1        0.2061
     13 C         137.6420  138.5354  167.0271 C.3     1  UNL1        0.2526
     14 O         138.4292  139.2497  168.0854 O.3     1  UNL1       -0.4683
     15 O         143.1740  140.9782  169.3096 O.3     1  UNL1       -0.4683
     16 C         143.6827  142.3294  169.7163 C.3     1  UNL1        0.2526
     17 O         140.6859  139.4741  170.0493 O.3     1  UNL1       -0.4654
     18 C         140.4852  140.3260  171.2675 C.3     1  UNL1        0.2528
     19 C         141.9848  141.0097  160.9002 C.ar    1  UNL1        0.0022
     20 C         143.4259  140.7759  160.5561 C.ar    1  UNL1        0.0013
     21 C         143.7863  139.9441  159.3609 C.ar    1  UNL1        0.0145
     22 C         142.7054  139.3462  158.5099 C.ar    1  UNL1        0.0479
     23 C         141.2642  139.5800  158.8541 C.ar    1  UNL1        0.0145
     24 C         140.9039  140.4118  160.0492 C.ar    1  UNL1        0.0013
     25 N         143.0657  138.5144  157.3148 N.pl3   1  UNL1       -0.3047
     26 C         142.8241  137.0341  157.3310 C.3     1  UNL1        0.1079
     27 C         143.1844  136.2022  156.1358 C.3     1  UNL1        0.0903
     28 N         143.7863  136.8508  154.9246 N.3     1  UNL1       -0.2946
     29 C         144.0279  138.3312  154.9085 C.3     1  UNL1        0.0903
     30 C         143.6676  139.1629  156.1036 C.3     1  UNL1        0.1079
     31 H         143.1658  136.6451  154.1415 H       1  UNL1        0.1233
     32 C         141.7535  139.7300  163.6037 C.1     1  UNL1        0.1005
     33 N         141.9982  138.2584  163.7603 N.1     1  UNL1       -0.1908
@<TRIPOS>BOND
     1    13    14    1
     2    14     7    1
     3     7     8   ar
     4     8     9   ar
     5     9     1    1
     6     1     2   ar
     7     2     3   ar
     8     3     4   ar
     9     4     5   ar
    10     5    19    1
    11    19    20   ar
    12    20    21   ar
    13    21    22   ar
    14    22    25    1
    15    25    26    1
    16    26    27    1
    17    27    28    1
    18    28    29    1
    19    29    30    1
    20    22    23   ar
    21    23    24   ar
    22     5     6   ar
    23     6    32    1
    24    32    33    3
    25     9    10   ar
    26    10    11   ar
    27    11    15    1
    28    15    16    1
    29    11    12   ar
    30    12    17    1
    31    17    18    1
    32    12     7   ar
    33     6     1   ar
    34    24    19   ar
    35    30    25    1
    36    28    31    1
@<TRIPOS>MOLECULE
*****
 33 36 0 0 0
SMALL
GASTEIGER

@<TRIPOS>ATOM
      1 C         139.7037  141.2079  160.4404 C.ar    1  UNL1        0.0290
      2 C         138.7674  142.2823  159.9725 C.ar    1  UNL1        0.0995
      3 N         138.1034  143.1850  160.9695 N.ar    1  UNL1       -0.2423
      4 C         138.3758  143.0134  162.4346 C.ar    1  UNL1        0.0995
      5 C         139.3121  141.9389  162.9026 C.ar    1  UNL1        0.0288
      6 C         139.9761  141.0362  161.9054 C.ar    1  UNL1        0.0714
      7 C         142.5057  139.5188  158.1941 C.ar    1  UNL1        0.1754
      8 C         141.8417  140.4215  159.1912 C.ar    1  UNL1        0.0403
      9 C         140.3676  140.3052  159.4432 C.ar    1  UNL1        0.0084
     10 C         139.5575  139.2861  158.6981 C.ar    1  UNL1        0.0403
     11 C         140.2215  138.3835  157.7009 C.ar    1  UNL1        0.1754
     12 C         141.6956  138.4998  157.4489 C.ar    1  UNL1        0.2061
     13 C         144.4829  140.4845  156.8127 C.3     1  UNL1        0.2526
     14 O         143.9798  139.6352  157.9420 O.3     1  UNL1       -0.4683
     15 O         139.4113  137.3644  156.9558 O.3     1  UNL1       -0.4683
     16 C         139.1249  137.5557  155.4959 C.3     1  UNL1        0.2526
     17 O         142.3595  137.5971  156.4518 O.3     1  UNL1       -0.4654
     18 C         142.9044  136.2694  156.8883 C.3     1  UNL1        0.2528
     19 C         139.5845  141.7672  164.3676 C.ar    1  UNL1        0.0022
     20 C         140.4642  142.7465  165.0866 C.ar    1  UNL1        0.0013
     21 C         140.7366  142.5748  166.5517 C.ar    1  UNL1        0.0145
     22 C         140.1293  141.4239  167.2976 C.ar    1  UNL1        0.0479
     23 C         139.2495  140.4446  166.5785 C.ar    1  UNL1        0.0145
     24 C         138.9772  140.6163  165.1135 C.ar    1  UNL1        0.0013
     25 N         140.4016  141.2521  168.7626 N.pl3   1  UNL1       -0.3047
     26 C         139.7596  140.1265  169.5179 C.3     1  UNL1        0.1079
     27 C         140.0319  139.9547  170.9830 C.3     1  UNL1        0.0903
     28 N         140.9464  140.9087  171.6927 N.3     1  UNL1       -0.2946
     29 C         141.5885  142.0344  170.9374 C.3     1  UNL1        0.0903
     30 C         141.3161  142.2061  169.4724 C.3     1  UNL1        0.1079
     31 H         141.7028  140.3513  172.0897 H       1  UNL1        0.1233
     32 C         140.9124  139.9618  162.3733 C.1     1  UNL1        0.1005
     33 N         141.8487  138.8873  162.8412 N.1     1  UNL1       -0.1908
@<TRIPOS>BOND
     1    13    14    1
     2    14     7    1
     3     7     8   ar
     4     8     9   ar
     5     9     1    1
     6     1     2   ar
     7     2     3   ar
     8     3     4   ar
     9     4     5   ar
    10     5    19    1
    11    19    20   ar
    12    20    21   ar
    13    21    22   ar
    14    22    25    1
    15    25    26    1
    16    26    27    1
    17    27    28    1
    18    28    29    1
    19    29    30    1
    20    22    23   ar
    21    23    24   ar
    22     5     6   ar
    23     6    32    1
    24    32    33    3
    25     9    10   ar
    26    10    11   ar
    27    11    15    1
    28    15    16    1
    29    11    12   ar
    30    12    17    1
    31    17    18    1
    32    12     7   ar
    33     6     1   ar
    34    24    19   ar
    35    30    25    1
    36    28    31    1
@<TRIPOS>MOLECULE
*****
 33 36 0 0 0
SMALL
GASTEIGER

@<TRIPOS>ATOM
      1 C         139.6125  141.0081  160.6254 C.ar    1  UNL1        0.0290
      2 C         138.5263  141.9741  160.2553 C.ar    1  UNL1        0.0995
      3 N         137.8709  142.8080  161.3160 N.ar    1  UNL1       -0.2423
      4 C         138.3017  142.6759  162.7468 C.ar    1  UNL1        0.0995
      5 C         139.3878  141.7098  163.1168 C.ar    1  UNL1        0.0288
      6 C         140.0433  140.8759  162.0561 C.ar    1  UNL1        0.0714
      7 C         140.1036  138.3855  157.6875 C.ar    1  UNL1        0.1754
      8 C         139.4482  139.2194  158.7482 C.ar    1  UNL1        0.0403
      9 C         140.2679  140.1741  159.5647 C.ar    1  UNL1        0.0084
     10 C         141.7429  140.2949  159.3205 C.ar    1  UNL1        0.0403
     11 C         142.3983  139.4610  158.2598 C.ar    1  UNL1        0.1754
     12 C         141.5786  138.5063  157.4433 C.ar    1  UNL1        0.2061
     13 C         138.9479  137.7592  155.4465 C.3     1  UNL1        0.2526
     14 O         139.2839  137.4308  156.8710 O.3     1  UNL1       -0.4683
     15 O         143.8734  139.5818  158.0156 O.3     1  UNL1       -0.4683
     16 C         144.3967  140.6441  157.0949 C.3     1  UNL1        0.2526
     17 O         142.2340  137.6724  156.3826 O.3     1  UNL1       -0.4654
     18 C         142.7409  136.3001  156.7141 C.3     1  UNL1        0.2528
     19 C         139.8186  141.5777  164.5475 C.ar    1  UNL1        0.0022
     20 C         139.1819  140.5454  165.4301 C.ar    1  UNL1        0.0013
     21 C         139.6126  140.4132  166.8609 C.ar    1  UNL1        0.0145
     22 C         140.6801  141.3133  167.4090 C.ar    1  UNL1        0.0479
     23 C         141.3169  142.3455  166.5263 C.ar    1  UNL1        0.0145
     24 C         140.8861  142.4777  165.0956 C.ar    1  UNL1        0.0013
     25 N         141.1109  141.1811  168.8397 N.pl3   1  UNL1       -0.3047
     26 C         140.3905  141.9418  169.9131 C.3     1  UNL1        0.1079
     27 C         140.8212  141.8097  171.3439 C.3     1  UNL1        0.0903
     28 N         141.9724  140.9168  171.7011 N.3     1  UNL1       -0.2946
     29 C         142.6929  140.1561  170.6276 C.3     1  UNL1        0.0903
     30 C         142.2621  140.2883  169.1969 C.3     1  UNL1        0.1079
     31 H         141.6158  140.2268  172.3622 H       1  UNL1        0.1233
     32 C         141.1294  139.9098  162.4261 C.1     1  UNL1        0.1005
     33 N         142.2156  138.9438  162.7962 N.1     1  UNL1       -0.1908
@<TRIPOS>BOND
     1    13    14    1
     2    14     7    1
     3     7     8   ar
     4     8     9   ar
     5     9     1    1
     6     1     2   ar
     7     2     3   ar
     8     3     4   ar
     9     4     5   ar
    10     5    19    1
    11    19    20   ar
    12    20    21   ar
    13    21    22   ar
    14    22    25    1
    15    25    26    1
    16    26    27    1
    17    27    28    1
    18    28    29    1
    19    29    30    1
    20    22    23   ar
    21    23    24   ar
    22     5     6   ar
    23     6    32    1
    24    32    33    3
    25     9    10   ar
    26    10    11   ar
    27    11    15    1
    28    15    16    1
    29    11    12   ar
    30    12    17    1
    31    17    18    1
    32    12     7   ar
    33     6     1   ar
    34    24    19   ar
    35    30    25    1
    36    28    31    1
@<TRIPOS>MOLECULE
*****
 33 36 0 0 0
SMALL
GASTEIGER

@<TRIPOS>ATOM
      1 C         142.8609  142.8979  160.0412 C.ar    1  UNL1        0.0290
      2 C         142.1772  144.1796  159.6673 C.ar    1  UNL1        0.0995
      3 N         141.5225  145.0169  160.7257 N.ar    1  UNL1       -0.2423
      4 C         141.5516  144.5726  162.1581 C.ar    1  UNL1        0.0995
      5 C         142.2353  143.2910  162.5320 C.ar    1  UNL1        0.0288
      6 C         142.8900  142.4536  161.4735 C.ar    1  UNL1        0.0714
      7 C         143.5251  139.9467  157.4723 C.ar    1  UNL1        0.1754
      8 C         142.8705  140.7841  158.5307 C.ar    1  UNL1        0.0403
      9 C         143.5156  142.0606  158.9827 C.ar    1  UNL1        0.0084
     10 C         144.8153  142.4998  158.3763 C.ar    1  UNL1        0.0403
     11 C         145.4699  141.6625  157.3178 C.ar    1  UNL1        0.1754
     12 C         144.8248  140.3859  156.8658 C.ar    1  UNL1        0.2061
     13 C         142.6528  137.5570  157.9996 C.3     1  UNL1        0.2526
     14 O         142.8799  138.6702  157.0203 O.3     1  UNL1       -0.4683
     15 O         146.7697  142.1016  156.7113 O.3     1  UNL1       -0.4683
     16 C         146.7795  142.8038  155.3859 C.3     1  UNL1        0.2526
     17 O         145.4794  139.5486  155.8073 O.3     1  UNL1       -0.4654
     18 C         145.0225  139.6494  154.3822 C.3     1  UNL1        0.2528
     19 C         142.2644  142.8466  163.9644 C.ar    1  UNL1        0.0022
     20 C         143.5091  143.0294  164.7812 C.ar    1  UNL1        0.0013
     21 C         143.5382  142.5851  166.2136 C.ar    1  UNL1        0.0145
     22 C         142.3226  141.9579  166.8292 C.ar    1  UNL1        0.0479
     23 C         141.0778  141.7751  166.0123 C.ar    1  UNL1        0.0145
     24 C         141.0488  142.2195  164.5799 C.ar    1  UNL1        0.0013
     25 N         142.3517  141.5136  168.2615 N.pl3   1  UNL1       -0.3047
     26 C         142.1591  142.5151  169.3615 C.3     1  UNL1        0.1079
     27 C         142.1882  142.0707  170.7939 C.3     1  UNL1        0.0903
     28 N         142.4098  140.6249  171.1263 N.3     1  UNL1       -0.2946
     29 C         142.6024  139.6234  170.0263 C.3     1  UNL1        0.0903
     30 C         142.5733  140.0678  168.5939 C.3     1  UNL1        0.1079
     31 H         141.5992  140.3189  171.6645 H       1  UNL1        0.1233
     32 C         143.5737  141.1719  161.8475 C.1     1  UNL1        0.1005
     33 N         144.2574  139.8903  162.2214 N.1     1  UNL1       -0.1908
@<TRIPOS>BOND
     1    13    14    1
     2    14     7    1
     3     7     8   ar
     4     8     9   ar
     5     9     1    1
     6     1     2   ar
     7     2     3   ar
     8     3     4   ar
     9     4     5   ar
    10     5    19    1
    11    19    20   ar
    12    20    21   ar
    13    21    22   ar
    14    22    25    1
    15    25    26    1
    16    26    27    1
    17    27    28    1
    18    28    29    1
    19    29    30    1
    20    22    23   ar
    21    23    24   ar
    22     5     6   ar
    23     6    32    1
    24    32    33    3
    25     9    10   ar
    26    10    11   ar
    27    11    15    1
    28    15    16    1
    29    11    12   ar
    30    12    17    1
    31    17    18    1
    32    12     7   ar
    33     6     1   ar
    34    24    19   ar
    35    30    25    1
    36    28    31    1
