@<TRIPOS>MOLECULE
*****
 31 33 0 0 0
SMALL
GASTEIGER

@<TRIPOS>ATOM
      1 C         139.2672  138.2165  163.4018 C.ar    1  UNL1        0.1393
      2 C         139.0394  138.9673  164.6803 C.ar    1  UNL1        0.0370
      3 C         140.1638  139.1429  165.6576 C.ar    1  UNL1        0.0063
      4 C         141.5159  138.5677  165.3563 C.ar    1  UNL1        0.0392
      5 C         141.7438  137.8170  164.0779 C.ar    1  UNL1        0.0063
      6 C         140.6195  137.6414  163.1006 C.ar    1  UNL1        0.0370
      7 C         142.6403  138.7433  166.3336 C.2     1  UNL1        0.1961
      8 O         143.7556  137.7413  166.3817 O.2     1  UNL1       -0.2866
      9 C         142.6494  139.9208  167.2627 C.ar    1  UNL1        0.0460
     10 C         142.2660  139.7435  168.7020 C.ar    1  UNL1        0.0151
     11 C         142.2751  140.9210  169.6312 C.ar    1  UNL1        0.0578
     12 CL        141.8917  140.7436  171.0704 Cl      1  UNL1       -0.0822
     13 C         142.6675  142.2759  169.1211 C.ar    1  UNL1        0.0119
     14 C         143.0510  142.4533  167.6818 C.ar    1  UNL1        0.0077
     15 C         143.0419  141.2757  166.7526 C.ar    1  UNL1        0.0377
     16 BR        143.4252  141.4531  165.3133 Br      1  UNL1       -0.0489
     17 O         138.1429  138.0410  162.4246 O.3     1  UNL1       -0.4656
     18 C         137.8068  139.1415  161.4625 C.3     1  UNL1        0.2897
     19 N         137.8753  141.6870  161.9781 N.am    1  UNL1       -0.2811
     20 C         138.5611  140.4372  161.5117 C.2     1  UNL1        0.2707
     21 O         140.0012  140.4829  161.0946 O.2     1  UNL1       -0.2707
     22 H         136.9301  141.6570  162.2518 H       1  UNL1        0.1550
     23 C         137.7894  143.3797  164.4534 C.3     1  UNL1        0.0323
     24 C         138.5867  143.8290  163.2650 C.ar    1  UNL1       -0.0083
     25 C         139.3410  145.1246  163.3141 C.ar    1  UNL1       -0.0023
     26 C         140.1382  145.5738  162.1256 C.ar    1  UNL1        0.0100
     27 C         140.1812  144.7275  160.8880 C.ar    1  UNL1        0.0697
     28 C         139.4269  143.4320  160.8388 C.ar    1  UNL1        0.0246
     29 C         138.6296  142.9827  162.0273 C.ar    1  UNL1        0.0470
     30 C         140.9785  145.1768  159.6995 C.1     1  UNL1        0.1005
     31 N         141.7757  145.6261  158.5110 N.1     1  UNL1       -0.1908
@<TRIPOS>BOND
     1    23    24    1
     2    24    25   ar
     3    25    26   ar
     4    26    27   ar
     5    27    30    1
     6    30    31    3
     7    27    28   ar
     8    28    29   ar
     9    29    19    1
    10    19    20   am
    11    20    21    2
    12    20    18    1
    13    18    17    1
    14    17     1    1
    15     1     2   ar
    16     2     3   ar
    17     3     4   ar
    18     4     7    1
    19     7     8    2
    20     7     9    1
    21     9    10   ar
    22    10    11   ar
    23    11    12    1
    24    11    13   ar
    25    13    14   ar
    26    14    15   ar
    27    15    16    1
    28     4     5   ar
    29     5     6   ar
    30    29    24   ar
    31     6     1   ar
    32    15     9   ar
    33    19    22    1
@<TRIPOS>MOLECULE
*****
 31 33 0 0 0
SMALL
GASTEIGER

@<TRIPOS>ATOM
      1 C         138.7941  144.2456  163.6633 C.ar    1  UNL1        0.1393
      2 C         137.8777  143.1237  163.2738 C.ar    1  UNL1        0.0370
      3 C         137.9593  141.8067  163.9872 C.ar    1  UNL1        0.0063
      4 C         138.9572  141.6116  165.0900 C.ar    1  UNL1        0.0392
      5 C         139.8735  142.7335  165.4794 C.ar    1  UNL1        0.0063
      6 C         139.7920  144.0504  164.7661 C.ar    1  UNL1        0.0370
      7 C         139.0387  140.2946  165.8033 C.2     1  UNL1        0.1961
      8 O         138.0944  139.1864  165.4423 O.2     1  UNL1       -0.2866
      9 C         140.0644  140.0858  166.8777 C.ar    1  UNL1        0.0460
     10 C         139.7111  140.3443  168.3124 C.ar    1  UNL1        0.0151
     11 C         140.7368  140.1355  169.3868 C.ar    1  UNL1        0.0578
     12 CL        140.3835  140.3939  170.8214 Cl      1  UNL1       -0.0822
     13 C         142.1158  139.6682  169.0265 C.ar    1  UNL1        0.0119
     14 C         142.4692  139.4097  167.5918 C.ar    1  UNL1        0.0077
     15 C         141.4435  139.6185  166.5174 C.ar    1  UNL1        0.0377
     16 BR        141.7968  139.3600  165.0827 Br      1  UNL1       -0.0489
     17 O         138.7126  145.5626  162.9499 O.3     1  UNL1       -0.4656
     18 C         139.8082  145.9771  162.0131 C.3     1  UNL1        0.2897
     19 N         141.7710  144.9351  160.6670 N.am    1  UNL1       -0.2811
     20 C         140.3043  145.0208  160.9692 C.2     1  UNL1        0.2707
     21 O         139.3335  144.1504  160.2276 O.2     1  UNL1       -0.2707
     22 H         142.4081  145.5064  161.1537 H       1  UNL1        0.1550
     23 C         141.9444  145.8015  157.8001 C.3     1  UNL1        0.0323
     24 C         142.3537  144.4120  158.1897 C.ar    1  UNL1       -0.0083
     25 C         142.8497  143.4558  157.1459 C.ar    1  UNL1       -0.0023
     26 C         143.2591  142.0663  157.5356 C.ar    1  UNL1        0.0100
     27 C         143.1724  141.6331  158.9690 C.ar    1  UNL1        0.0697
     28 C         142.6763  142.5893  160.0128 C.ar    1  UNL1        0.0246
     29 C         142.2670  143.9788  159.6231 C.ar    1  UNL1        0.0470
     30 C         143.5817  140.2436  159.3586 C.1     1  UNL1        0.1005
     31 N         143.9910  138.8542  159.7483 N.1     1  UNL1       -0.1908
@<TRIPOS>BOND
     1    23    24    1
     2    24    25   ar
     3    25    26   ar
     4    26    27   ar
     5    27    30    1
     6    30    31    3
     7    27    28   ar
     8    28    29   ar
     9    29    19    1
    10    19    20   am
    11    20    21    2
    12    20    18    1
    13    18    17    1
    14    17     1    1
    15     1     2   ar
    16     2     3   ar
    17     3     4   ar
    18     4     7    1
    19     7     8    2
    20     7     9    1
    21     9    10   ar
    22    10    11   ar
    23    11    12    1
    24    11    13   ar
    25    13    14   ar
    26    14    15   ar
    27    15    16    1
    28     4     5   ar
    29     5     6   ar
    30    29    24   ar
    31     6     1   ar
    32    15     9   ar
    33    19    22    1
@<TRIPOS>MOLECULE
*****
 31 33 0 0 0
SMALL
GASTEIGER

@<TRIPOS>ATOM
      1 C         138.6408  143.9487  163.2579 C.ar    1  UNL1        0.1393
      2 C         139.0750  144.0443  164.6905 C.ar    1  UNL1        0.0370
      3 C         139.1177  142.8122  165.5450 C.ar    1  UNL1        0.0063
      4 C         138.7264  141.4846  164.9669 C.ar    1  UNL1        0.0392
      5 C         138.2923  141.3890  163.5343 C.ar    1  UNL1        0.0063
      6 C         138.2495  142.6210  162.6798 C.ar    1  UNL1        0.0370
      7 C         138.7692  140.2525  165.8214 C.2     1  UNL1        0.1961
      8 O         137.7056  139.2043  165.6799 O.2     1  UNL1       -0.2866
      9 C         139.8756  140.0687  166.8175 C.ar    1  UNL1        0.0460
     10 C         139.5890  140.1794  168.2857 C.ar    1  UNL1        0.0151
     11 C         140.6953  139.9956  169.2818 C.ar    1  UNL1        0.0578
     12 CL        140.4087  140.1062  170.7499 Cl      1  UNL1       -0.0822
     13 C         142.0883  139.7010  168.8097 C.ar    1  UNL1        0.0119
     14 C         142.3749  139.5903  167.3414 C.ar    1  UNL1        0.0077
     15 C         141.2686  139.7742  166.3454 C.ar    1  UNL1        0.0377
     16 BR        141.5552  139.6635  164.8772 Br      1  UNL1       -0.0489
     17 O         138.5980  145.1807  162.4034 O.3     1  UNL1       -0.4656
     18 C         139.8646  145.7328  161.8194 C.3     1  UNL1        0.2897
     19 N         141.4852  143.9964  162.8724 N.am    1  UNL1       -0.2811
     20 C         141.0839  144.8651  161.7173 C.2     1  UNL1        0.2707
     21 O         141.9020  144.8661  160.4600 O.2     1  UNL1       -0.2707
     22 H         140.9483  143.9958  163.6976 H       1  UNL1        0.1550
     23 C         143.9589  144.6974  164.4183 C.3     1  UNL1        0.0323
     24 C         143.9413  143.4792  163.5432 C.ar    1  UNL1       -0.0083
     25 C         145.1606  142.6115  163.4411 C.ar    1  UNL1       -0.0023
     26 C         145.1431  141.3934  162.5660 C.ar    1  UNL1        0.0100
     27 C         143.9063  141.0429  161.7931 C.ar    1  UNL1        0.0697
     28 C         142.6870  141.9105  161.8953 C.ar    1  UNL1        0.0246
     29 C         142.7046  143.1287  162.7703 C.ar    1  UNL1        0.0470
     30 C         143.8888  139.8247  160.9180 C.1     1  UNL1        0.1005
     31 N         143.8712  138.6065  160.0430 N.1     1  UNL1       -0.1908
@<TRIPOS>BOND
     1    23    24    1
     2    24    25   ar
     3    25    26   ar
     4    26    27   ar
     5    27    30    1
     6    30    31    3
     7    27    28   ar
     8    28    29   ar
     9    29    19    1
    10    19    20   am
    11    20    21    2
    12    20    18    1
    13    18    17    1
    14    17     1    1
    15     1     2   ar
    16     2     3   ar
    17     3     4   ar
    18     4     7    1
    19     7     8    2
    20     7     9    1
    21     9    10   ar
    22    10    11   ar
    23    11    12    1
    24    11    13   ar
    25    13    14   ar
    26    14    15   ar
    27    15    16    1
    28     4     5   ar
    29     5     6   ar
    30    29    24   ar
    31     6     1   ar
    32    15     9   ar
    33    19    22    1
@<TRIPOS>MOLECULE
*****
 31 33 0 0 0
SMALL
GASTEIGER

@<TRIPOS>ATOM
      1 C         138.7532  143.9147  163.6192 C.ar    1  UNL1        0.1393
      2 C         137.8609  142.7515  163.3017 C.ar    1  UNL1        0.0370
      3 C         137.9494  141.4944  164.1153 C.ar    1  UNL1        0.0063
      4 C         138.9302  141.4006  165.2464 C.ar    1  UNL1        0.0392
      5 C         139.8225  142.5637  165.5638 C.ar    1  UNL1        0.0063
      6 C         139.7340  143.8208  164.7503 C.ar    1  UNL1        0.0370
      7 C         139.0187  140.1435  166.0599 C.2     1  UNL1        0.1961
      8 O         138.0308  139.0364  165.8395 O.2     1  UNL1       -0.2866
      9 C         140.0950  139.9934  167.0939 C.ar    1  UNL1        0.0460
     10 C         139.8001  140.2968  168.5329 C.ar    1  UNL1        0.0151
     11 C         140.8764  140.1467  169.5669 C.ar    1  UNL1        0.0578
     12 CL        140.5815  140.4501  171.0059 Cl      1  UNL1       -0.0822
     13 C         142.2476  139.6934  169.1618 C.ar    1  UNL1        0.0119
     14 C         142.5426  139.3900  167.7226 C.ar    1  UNL1        0.0077
     15 C         141.4663  139.5400  166.6887 C.ar    1  UNL1        0.0377
     16 BR        141.7612  139.2367  165.2496 Br      1  UNL1       -0.0489
     17 O         138.6648  145.1718  162.8056 O.3     1  UNL1       -0.4656
     18 C         139.8750  145.6838  162.0824 C.3     1  UNL1        0.2897
     19 N         141.4902  145.5762  160.0503 N.am    1  UNL1       -0.2811
     20 C         140.2248  145.1415  160.7283 C.2     1  UNL1        0.2707
     21 O         139.3092  144.1645  160.0522 O.2     1  UNL1       -0.2707
     22 H         142.0912  146.2174  160.4940 H       1  UNL1        0.1550
     23 C         143.1735  143.1042  159.8134 C.3     1  UNL1        0.0323
     24 C         142.6816  143.7979  158.5777 C.ar    1  UNL1       -0.0083
     25 C         143.0314  143.2557  157.2237 C.ar    1  UNL1       -0.0023
     26 C         142.5396  143.9494  155.9880 C.ar    1  UNL1        0.0100
     27 C         141.6980  145.1854  156.1064 C.ar    1  UNL1        0.0697
     28 C         141.3483  145.7276  157.4605 C.ar    1  UNL1        0.0246
     29 C         141.8401  145.0339  158.6962 C.ar    1  UNL1        0.0470
     30 C         141.2062  145.8792  154.8708 C.1     1  UNL1        0.1005
     31 N         140.7144  146.5729  153.6351 N.1     1  UNL1       -0.1908
@<TRIPOS>BOND
     1    23    24    1
     2    24    25   ar
     3    25    26   ar
     4    26    27   ar
     5    27    30    1
     6    30    31    3
     7    27    28   ar
     8    28    29   ar
     9    29    19    1
    10    19    20   am
    11    20    21    2
    12    20    18    1
    13    18    17    1
    14    17     1    1
    15     1     2   ar
    16     2     3   ar
    17     3     4   ar
    18     4     7    1
    19     7     8    2
    20     7     9    1
    21     9    10   ar
    22    10    11   ar
    23    11    12    1
    24    11    13   ar
    25    13    14   ar
    26    14    15   ar
    27    15    16    1
    28     4     5   ar
    29     5     6   ar
    30    29    24   ar
    31     6     1   ar
    32    15     9   ar
    33    19    22    1
@<TRIPOS>MOLECULE
*****
 31 33 0 0 0
SMALL
GASTEIGER

@<TRIPOS>ATOM
      1 C         138.9864  144.2447  163.8343 C.ar    1  UNL1        0.1393
      2 C         140.0972  143.9821  164.8074 C.ar    1  UNL1        0.0370
      3 C         140.1384  142.6897  165.5677 C.ar    1  UNL1        0.0063
      4 C         139.0687  141.6599  165.3548 C.ar    1  UNL1        0.0392
      5 C         137.9578  141.9226  164.3817 C.ar    1  UNL1        0.0063
      6 C         137.9167  143.2149  163.6214 C.ar    1  UNL1        0.0370
      7 C         139.1098  140.3676  166.1151 C.2     1  UNL1        0.1961
      8 O         138.0760  139.3119  165.8563 O.2     1  UNL1       -0.2866
      9 C         140.1847  140.1308  167.1341 C.ar    1  UNL1        0.0460
     10 C         139.9388  140.4659  168.5754 C.ar    1  UNL1        0.0151
     11 C         141.0138  140.2291  169.5944 C.ar    1  UNL1        0.0578
     12 CL        140.7678  140.5642  171.0357 Cl      1  UNL1       -0.0822
     13 C         142.3346  139.6572  169.1722 C.ar    1  UNL1        0.0119
     14 C         142.5806  139.3221  167.7309 C.ar    1  UNL1        0.0077
     15 C         141.5056  139.5589  166.7119 C.ar    1  UNL1        0.0377
     16 BR        141.7516  139.2238  165.2707 Br      1  UNL1       -0.0489
     17 O         138.9453  145.5371  163.0740 O.3     1  UNL1       -0.4656
     18 C         139.9078  145.7762  161.9487 C.3     1  UNL1        0.2897
     19 N         141.7580  143.9946  161.5580 N.am    1  UNL1       -0.2811
     20 C         140.4504  144.6168  161.1668 C.2     1  UNL1        0.2707
     21 O         139.6855  144.0796  159.9936 O.2     1  UNL1       -0.2707
     22 H         142.2601  144.3472  162.3279 H       1  UNL1        0.1550
     23 C         140.7633  141.2180  162.1069 C.3     1  UNL1        0.0323
     24 C         141.8033  141.4469  161.0505 C.ar    1  UNL1       -0.0083
     25 C         142.3460  140.2876  160.2686 C.ar    1  UNL1       -0.0023
     26 C         143.3860  140.5165  159.2122 C.ar    1  UNL1        0.0100
     27 C         143.8833  141.9048  158.9377 C.ar    1  UNL1        0.0697
     28 C         143.3407  143.0641  159.7196 C.ar    1  UNL1        0.0246
     29 C         142.3007  142.8352  160.7760 C.ar    1  UNL1        0.0470
     30 C         144.9233  142.1337  157.8813 C.1     1  UNL1        0.1005
     31 N         145.9633  142.3626  156.8249 N.1     1  UNL1       -0.1908
@<TRIPOS>BOND
     1    23    24    1
     2    24    25   ar
     3    25    26   ar
     4    26    27   ar
     5    27    30    1
     6    30    31    3
     7    27    28   ar
     8    28    29   ar
     9    29    19    1
    10    19    20   am
    11    20    21    2
    12    20    18    1
    13    18    17    1
    14    17     1    1
    15     1     2   ar
    16     2     3   ar
    17     3     4   ar
    18     4     7    1
    19     7     8    2
    20     7     9    1
    21     9    10   ar
    22    10    11   ar
    23    11    12    1
    24    11    13   ar
    25    13    14   ar
    26    14    15   ar
    27    15    16    1
    28     4     5   ar
    29     5     6   ar
    30    29    24   ar
    31     6     1   ar
    32    15     9   ar
    33    19    22    1
@<TRIPOS>MOLECULE
*****
 31 33 0 0 0
SMALL
GASTEIGER

@<TRIPOS>ATOM
      1 C         140.7181  144.9706  163.6782 C.ar    1  UNL1        0.1393
      2 C         139.6171  144.3791  164.5076 C.ar    1  UNL1        0.0370
      3 C         139.8592  143.1214  165.2884 C.ar    1  UNL1        0.0063
      4 C         141.2023  142.4552  165.2398 C.ar    1  UNL1        0.0392
      5 C         142.3033  143.0468  164.4104 C.ar    1  UNL1        0.0063
      6 C         142.0612  144.3044  163.6296 C.ar    1  UNL1        0.0370
      7 C         141.4444  141.1976  166.0206 C.2     1  UNL1        0.1961
      8 O         142.5473  141.1457  167.0359 O.2     1  UNL1       -0.2866
      9 C         140.5835  139.9918  165.7861 C.ar    1  UNL1        0.0460
     10 C         139.3573  139.7718  166.6214 C.ar    1  UNL1        0.0151
     11 C         138.4964  138.5660  166.3869 C.ar    1  UNL1        0.0578
     12 CL        137.2702  138.3460  167.2223 Cl      1  UNL1       -0.0822
     13 C         138.8618  137.5802  165.3171 C.ar    1  UNL1        0.0119
     14 C         140.0881  137.8002  164.4816 C.ar    1  UNL1        0.0077
     15 C         140.9489  139.0060  164.7161 C.ar    1  UNL1        0.0377
     16 BR        142.1752  139.2260  163.8807 Br      1  UNL1       -0.0489
     17 O         140.4761  146.2283  162.8974 O.3     1  UNL1       -0.4656
     18 C         139.8690  146.1555  161.5277 C.3     1  UNL1        0.2897
     19 N         141.7868  145.1305  160.1058 N.am    1  UNL1       -0.2811
     20 C         140.3530  145.1294  160.5464 C.2     1  UNL1        0.2707
     21 O         139.4030  144.1022  160.0056 O.2     1  UNL1       -0.2707
     22 H         142.4103  145.8047  160.4608 H       1  UNL1        0.1550
     23 C         142.0554  145.8402  157.2034 C.3     1  UNL1        0.0323
     24 C         142.4050  144.4593  157.6733 C.ar    1  UNL1       -0.0083
     25 C         142.8889  143.4332  156.6920 C.ar    1  UNL1       -0.0023
     26 C         143.2386  142.0522  157.1620 C.ar    1  UNL1        0.0100
     27 C         143.1042  141.6974  158.6132 C.ar    1  UNL1        0.0697
     28 C         142.6203  142.7235  159.5944 C.ar    1  UNL1        0.0246
     29 C         142.2707  144.1044  159.1245 C.ar    1  UNL1        0.0470
     30 C         143.4538  140.3165  159.0831 C.1     1  UNL1        0.1005
     31 N         143.8035  138.9356  159.5531 N.1     1  UNL1       -0.1908
@<TRIPOS>BOND
     1    23    24    1
     2    24    25   ar
     3    25    26   ar
     4    26    27   ar
     5    27    30    1
     6    30    31    3
     7    27    28   ar
     8    28    29   ar
     9    29    19    1
    10    19    20   am
    11    20    21    2
    12    20    18    1
    13    18    17    1
    14    17     1    1
    15     1     2   ar
    16     2     3   ar
    17     3     4   ar
    18     4     7    1
    19     7     8    2
    20     7     9    1
    21     9    10   ar
    22    10    11   ar
    23    11    12    1
    24    11    13   ar
    25    13    14   ar
    26    14    15   ar
    27    15    16    1
    28     4     5   ar
    29     5     6   ar
    30    29    24   ar
    31     6     1   ar
    32    15     9   ar
    33    19    22    1
@<TRIPOS>MOLECULE
*****
 31 33 0 0 0
SMALL
GASTEIGER

@<TRIPOS>ATOM
      1 C         139.0834  144.7349  163.3706 C.ar    1  UNL1        0.1393
      2 C         140.3742  144.7258  164.1347 C.ar    1  UNL1        0.0370
      3 C         140.6937  143.5840  165.0536 C.ar    1  UNL1        0.0063
      4 C         139.7225  142.4514  165.2083 C.ar    1  UNL1        0.0392
      5 C         138.4318  142.4605  164.4442 C.ar    1  UNL1        0.0063
      6 C         138.1122  143.6022  163.5254 C.ar    1  UNL1        0.0370
      7 C         140.0421  141.3097  166.1272 C.2     1  UNL1        0.1961
      8 O         139.7605  141.4275  167.5959 O.2     1  UNL1       -0.2866
      9 C         140.6433  140.0502  165.5775 C.ar    1  UNL1        0.0460
     10 C         142.0861  140.0244  165.1681 C.ar    1  UNL1        0.0151
     11 C         142.6873  138.7648  164.6184 C.ar    1  UNL1        0.0578
     12 CL        144.1301  138.7390  164.2091 Cl      1  UNL1       -0.0822
     13 C         141.8458  137.5312  164.4781 C.ar    1  UNL1        0.0119
     14 C         140.4029  137.5570  164.8874 C.ar    1  UNL1        0.0077
     15 C         139.8017  138.8165  165.4371 C.ar    1  UNL1        0.0377
     16 BR        138.3589  138.8423  165.8465 Br      1  UNL1       -0.0489
     17 O         138.7638  145.8765  162.4517 O.3     1  UNL1       -0.4656
     18 C         139.7141  146.2411  161.3499 C.3     1  UNL1        0.2897
     19 N         141.7815  145.0833  160.2844 N.am    1  UNL1       -0.2811
     20 C         140.2964  145.1696  160.4765 C.2     1  UNL1        0.2707
     21 O         139.3935  144.1845  159.7951 O.2     1  UNL1       -0.2707
     22 H         142.3741  145.7299  160.7316 H       1  UNL1        0.1550
     23 C         142.1338  145.5705  157.3453 C.3     1  UNL1        0.0323
     24 C         142.5399  144.2554  157.9414 C.ar    1  UNL1       -0.0083
     25 C         143.1222  143.1839  157.0681 C.ar    1  UNL1       -0.0023
     26 C         143.5283  141.8687  157.6642 C.ar    1  UNL1        0.0100
     27 C         143.3522  141.6251  159.1338 C.ar    1  UNL1        0.0697
     28 C         142.7700  142.6966  160.0071 C.ar    1  UNL1        0.0246
     29 C         142.3638  144.0117  159.4110 C.ar    1  UNL1        0.0470
     30 C         143.7584  140.3099  159.7299 C.1     1  UNL1        0.1005
     31 N         144.1646  138.9948  160.3261 N.1     1  UNL1       -0.1908
@<TRIPOS>BOND
     1    23    24    1
     2    24    25   ar
     3    25    26   ar
     4    26    27   ar
     5    27    30    1
     6    30    31    3
     7    27    28   ar
     8    28    29   ar
     9    29    19    1
    10    19    20   am
    11    20    21    2
    12    20    18    1
    13    18    17    1
    14    17     1    1
    15     1     2   ar
    16     2     3   ar
    17     3     4   ar
    18     4     7    1
    19     7     8    2
    20     7     9    1
    21     9    10   ar
    22    10    11   ar
    23    11    12    1
    24    11    13   ar
    25    13    14   ar
    26    14    15   ar
    27    15    16    1
    28     4     5   ar
    29     5     6   ar
    30    29    24   ar
    31     6     1   ar
    32    15     9   ar
    33    19    22    1
@<TRIPOS>MOLECULE
*****
 31 33 0 0 0
SMALL
GASTEIGER

@<TRIPOS>ATOM
      1 C         140.3653  138.1356  162.2294 C.ar    1  UNL1        0.1393
      2 C         141.3317  139.0051  161.4811 C.ar    1  UNL1        0.0370
      3 C         140.8539  140.2685  160.8286 C.ar    1  UNL1        0.0063
      4 C         139.4097  140.6622  160.9244 C.ar    1  UNL1        0.0392
      5 C         138.4433  139.7927  161.6726 C.ar    1  UNL1        0.0063
      6 C         138.9210  138.5294  162.3251 C.ar    1  UNL1        0.0370
      7 C         138.9319  141.9255  160.2719 C.2     1  UNL1        0.1961
      8 O         138.1245  141.8587  159.0094 O.2     1  UNL1       -0.2866
      9 C         139.2615  143.2557  160.8817 C.ar    1  UNL1        0.0460
     10 C         138.8955  143.5379  162.3087 C.ar    1  UNL1        0.0151
     11 C         139.2251  144.8681  162.9186 C.ar    1  UNL1        0.0578
     12 CL        138.8591  145.1503  164.3455 Cl      1  UNL1       -0.0822
     13 C         139.9208  145.9161  162.1014 C.ar    1  UNL1        0.0119
     14 C         140.2868  145.6339  160.6744 C.ar    1  UNL1        0.0077
     15 C         139.9572  144.3037  160.0645 C.ar    1  UNL1        0.0377
     16 BR        140.3232  144.0215  158.6375 Br      1  UNL1       -0.0489
     17 O         140.8430  136.8723  162.8819 O.3     1  UNL1       -0.4656
     18 C         141.0874  136.8385  164.3615 C.3     1  UNL1        0.2897
     19 N         140.0935  138.8033  165.7405 N.am    1  UNL1       -0.2811
     20 C         141.2752  138.1188  165.1201 C.2     1  UNL1        0.2707
     21 O         142.6449  138.7147  165.2583 O.2     1  UNL1       -0.2707
     22 H         139.1946  138.4122  165.6498 H       1  UNL1        0.1550
     23 C         140.3971  141.3942  164.2589 C.3     1  UNL1        0.0323
     24 C         140.4332  141.3790  165.7584 C.ar    1  UNL1       -0.0083
     25 C         140.6210  142.6593  166.5170 C.ar    1  UNL1       -0.0023
     26 C         140.6571  142.6442  168.0165 C.ar    1  UNL1        0.0100
     27 C         140.5053  141.3488  168.7573 C.ar    1  UNL1        0.0697
     28 C         140.3174  140.0685  167.9987 C.ar    1  UNL1        0.0246
     29 C         140.2814  140.0837  166.4992 C.ar    1  UNL1        0.0470
     30 C         140.5414  141.3337  170.2568 C.1     1  UNL1        0.1005
     31 N         140.5774  141.3185  171.7563 N.1     1  UNL1       -0.1908
@<TRIPOS>BOND
     1    23    24    1
     2    24    25   ar
     3    25    26   ar
     4    26    27   ar
     5    27    30    1
     6    30    31    3
     7    27    28   ar
     8    28    29   ar
     9    29    19    1
    10    19    20   am
    11    20    21    2
    12    20    18    1
    13    18    17    1
    14    17     1    1
    15     1     2   ar
    16     2     3   ar
    17     3     4   ar
    18     4     7    1
    19     7     8    2
    20     7     9    1
    21     9    10   ar
    22    10    11   ar
    23    11    12    1
    24    11    13   ar
    25    13    14   ar
    26    14    15   ar
    27    15    16    1
    28     4     5   ar
    29     5     6   ar
    30    29    24   ar
    31     6     1   ar
    32    15     9   ar
    33    19    22    1
@<TRIPOS>MOLECULE
*****
 31 33 0 0 0
SMALL
GASTEIGER

@<TRIPOS>ATOM
      1 C         141.8955  138.1784  162.8995 C.ar    1  UNL1        0.1393
      2 C         140.5045  138.6313  162.5679 C.ar    1  UNL1        0.0370
      3 C         139.5830  139.0852  163.6611 C.ar    1  UNL1        0.0063
      4 C         140.0525  139.0861  165.0857 C.ar    1  UNL1        0.0392
      5 C         141.4435  138.6332  165.4172 C.ar    1  UNL1        0.0063
      6 C         142.3650  138.1794  164.3242 C.ar    1  UNL1        0.0370
      7 C         139.1310  139.5400  166.1787 C.2     1  UNL1        0.1961
      8 O         137.7063  139.0711  166.2015 O.2     1  UNL1       -0.2866
      9 C         139.6341  140.4627  167.2490 C.ar    1  UNL1        0.0460
     10 C         139.8003  139.9624  168.6533 C.ar    1  UNL1        0.0151
     11 C         140.3034  140.8851  169.7236 C.ar    1  UNL1        0.0578
     12 CL        140.4696  140.3849  171.1278 Cl      1  UNL1       -0.0822
     13 C         140.6403  142.3081  169.3895 C.ar    1  UNL1        0.0119
     14 C         140.4741  142.8084  167.9852 C.ar    1  UNL1        0.0077
     15 C         139.9710  141.8857  166.9149 C.ar    1  UNL1        0.0377
     16 BR        139.8048  142.3860  165.5106 Br      1  UNL1       -0.0489
     17 O         142.8171  137.7246  161.8064 O.3     1  UNL1       -0.4656
     18 C         143.8464  138.6657  161.2543 C.3     1  UNL1        0.2897
     19 N         143.2855  140.6929  162.7794 N.am    1  UNL1       -0.2811
     20 C         143.6871  140.1454  161.4419 C.2     1  UNL1        0.2707
     21 O         143.9294  141.0775  160.2919 O.2     1  UNL1       -0.2707
     22 H         143.1265  140.0811  163.5341 H       1  UNL1        0.1550
     23 C         145.3922  142.2558  164.2352 C.3     1  UNL1        0.0323
     24 C         144.1796  142.9541  163.6948 C.ar    1  UNL1       -0.0083
     25 C         144.0203  144.4337  163.8824 C.ar    1  UNL1       -0.0023
     26 C         142.8076  145.1320  163.3420 C.ar    1  UNL1        0.0100
     27 C         141.7543  144.3506  162.6141 C.ar    1  UNL1        0.0697
     28 C         141.9136  142.8709  162.4265 C.ar    1  UNL1        0.0246
     29 C         143.1263  142.1727  162.9669 C.ar    1  UNL1        0.0470
     30 C         140.5417  145.0488  162.0737 C.1     1  UNL1        0.1005
     31 N         139.3291  145.7471  161.5333 N.1     1  UNL1       -0.1908
@<TRIPOS>BOND
     1    23    24    1
     2    24    25   ar
     3    25    26   ar
     4    26    27   ar
     5    27    30    1
     6    30    31    3
     7    27    28   ar
     8    28    29   ar
     9    29    19    1
    10    19    20   am
    11    20    21    2
    12    20    18    1
    13    18    17    1
    14    17     1    1
    15     1     2   ar
    16     2     3   ar
    17     3     4   ar
    18     4     7    1
    19     7     8    2
    20     7     9    1
    21     9    10   ar
    22    10    11   ar
    23    11    12    1
    24    11    13   ar
    25    13    14   ar
    26    14    15   ar
    27    15    16    1
    28     4     5   ar
    29     5     6   ar
    30    29    24   ar
    31     6     1   ar
    32    15     9   ar
    33    19    22    1
