@<TRIPOS>MOLECULE
*****
 34 37 0 0 0
SMALL
GASTEIGER

@<TRIPOS>ATOM
      1 C         140.5937  141.9039  164.9401 C.ar    1  UNL1        0.1550
      2 N         141.0619  142.2058  166.3328 N.ar    1  UNL1       -0.1970
      3 C         140.7429  141.2603  167.4527 C.ar    1  UNL1        0.2215
      4 N         139.9558  140.0129  167.1799 N.ar    1  UNL1       -0.2108
      5 C         139.4876  139.7110  165.7873 C.ar    1  UNL1        0.1193
      6 C         138.6997  138.5682  165.2188 C.ar    1  UNL1        0.0981
      7 C         138.1724  137.3926  165.9869 C.3     1  UNL1        0.0556
      8 N         138.5317  138.8073  163.7476 N.ar    1  UNL1       -0.1719
      9 N         139.2158  140.0980  163.4067 N.ar    1  UNL1       -0.2444
     10 C         139.8065  140.6565  164.6673 C.ar    1  UNL1        0.1284
     11 N         141.2111  141.5622  168.8455 N.pl3   1  UNL1       -0.2753
     12 C         142.2772  142.5929  169.0714 C.3     1  UNL1        0.1107
     13 C         142.7454  142.8948  170.4641 C.3     1  UNL1        0.0904
     14 N         142.1475  142.1660  171.6309 N.3     1  UNL1       -0.2946
     15 C         141.0814  141.1353  171.4050 C.3     1  UNL1        0.0904
     16 C         140.6132  140.8334  170.0122 C.3     1  UNL1        0.1107
     17 H         141.7470  142.8740  172.2464 H       1  UNL1        0.1233
     18 N         140.9126  142.8494  163.8201 N.pl3   1  UNL1       -0.2821
     19 H         140.2709  143.5538  163.5727 H       1  UNL1        0.1551
     20 C         145.9434  141.5513  163.7386 C.3     1  UNL1        0.0521
     21 C         144.7248  142.0725  163.0364 C.ar    1  UNL1        0.0608
     22 C         144.8029  142.4660  161.5909 C.ar    1  UNL1        0.0148
     23 C         143.5843  142.9873  160.8887 C.ar    1  UNL1        0.0041
     24 C         142.2875  143.1151  161.6317 C.ar    1  UNL1        0.0344
     25 C         142.2094  142.7216  163.0770 C.ar    1  UNL1        0.1328
     26 N         143.4280  142.2003  163.7794 N.ar    1  UNL1       -0.2349
     27 C         139.2952  140.7208  162.0444 C.3     1  UNL1        0.1595
     28 C         138.2286  141.6736  161.5921 C.3     1  UNL1        0.1688
     29 O         137.4130  142.4220  162.6043 O.3     1  UNL1       -0.3435
     30 C         137.7047  143.8667  162.8826 C.3     1  UNL1        0.2459
     31 C         138.0601  144.3059  164.2722 C.3     1  UNL1        0.4248
     32 F         138.4156  144.7451  165.6616 F       1  UNL1       -0.1674
     33 F         138.8877  145.4223  163.7077 F       1  UNL1       -0.1674
     34 F         137.2326  143.1895  164.8367 F       1  UNL1       -0.1674
@<TRIPOS>BOND
     1    20    21    1
     2    21    22   ar
     3    22    23   ar
     4    23    24   ar
     5    24    25   ar
     6    25    18    1
     7    18     1    1
     8     1     2   ar
     9     2     3   ar
    10     3    11    1
    11    11    12    1
    12    12    13    1
    13    13    14    1
    14    14    15    1
    15    15    16    1
    16     3     4   ar
    17     4     5   ar
    18     5     6   ar
    19     6     7    1
    20     6     8   ar
    21     8     9   ar
    22     9    27    1
    23    27    28    1
    24    28    29    1
    25    29    30    1
    26    30    31    1
    27    31    32    1
    28    31    33    1
    29    31    34    1
    30     9    10   ar
    31    25    26   ar
    32    26    21   ar
    33    10     1   ar
    34    16    11    1
    35    10     5   ar
    36    18    19    1
    37    14    17    1
@<TRIPOS>MOLECULE
*****
 34 37 0 0 0
SMALL
GASTEIGER

@<TRIPOS>ATOM
      1 C         140.1509  141.4520  165.1554 C.ar    1  UNL1        0.1550
      2 N         139.9767  141.1862  163.6895 N.ar    1  UNL1       -0.1970
      3 C         139.1555  140.0175  163.2317 C.ar    1  UNL1        0.2215
      4 N         138.5086  139.1145  164.2398 N.ar    1  UNL1       -0.2108
      5 C         138.6828  139.3804  165.7057 C.ar    1  UNL1        0.1193
      6 C         138.1696  138.6694  166.9227 C.ar    1  UNL1        0.0981
      7 C         137.3043  137.4442  166.9286 C.3     1  UNL1        0.0556
      8 N         138.6735  139.3988  168.1327 N.ar    1  UNL1       -0.1719
      9 N         139.4983  140.5605  167.6635 N.ar    1  UNL1       -0.2444
     10 C         139.5040  140.5491  166.1635 C.ar    1  UNL1        0.1284
     11 N         138.9812  139.7516  161.7657 N.pl3   1  UNL1       -0.2753
     12 C         137.9890  140.5485  160.9717 C.3     1  UNL1        0.1107
     13 C         137.8147  140.2827  159.5058 C.3     1  UNL1        0.0904
     14 N         138.6326  139.2199  158.8338 N.3     1  UNL1       -0.2946
     15 C         139.6249  138.4229  159.6278 C.3     1  UNL1        0.0904
     16 C         139.7991  138.6888  161.0938 C.3     1  UNL1        0.1107
     17 H         139.1537  139.6780  158.0862 H       1  UNL1        0.1233
     18 N         140.9721  142.6208  165.6133 N.pl3   1  UNL1       -0.2821
     19 H         140.7727  143.0556  166.4738 H       1  UNL1        0.1551
     20 C         145.6481  141.9271  163.4561 C.3     1  UNL1        0.0521
     21 C         144.4352  142.7803  163.6815 C.ar    1  UNL1        0.0608
     22 C         144.3472  144.1398  163.0538 C.ar    1  UNL1        0.0148
     23 C         143.1343  144.9929  163.2792 C.ar    1  UNL1        0.0041
     24 C         142.0093  144.4866  164.1324 C.ar    1  UNL1        0.0344
     25 C         142.0972  143.1272  164.7601 C.ar    1  UNL1        0.1328
     26 N         143.3102  142.2739  164.5347 N.ar    1  UNL1       -0.2349
     27 C         140.1949  141.5584  168.5403 C.3     1  UNL1        0.1595
     28 C         140.2900  141.3207  170.0183 C.3     1  UNL1        0.1688
     29 O         141.5355  141.7042  170.7611 O.3     1  UNL1       -0.3435
     30 C         142.2858  142.9450  170.3770 C.3     1  UNL1        0.2459
     31 C         143.7832  142.9201  170.2925 C.3     1  UNL1        0.4248
     32 F         145.2805  142.8952  170.2081 F       1  UNL1       -0.1674
     33 F         143.8569  144.0631  171.2610 F       1  UNL1       -0.1674
     34 F         143.7094  141.7770  169.3241 F       1  UNL1       -0.1674
@<TRIPOS>BOND
     1    20    21    1
     2    21    22   ar
     3    22    23   ar
     4    23    24   ar
     5    24    25   ar
     6    25    18    1
     7    18     1    1
     8     1     2   ar
     9     2     3   ar
    10     3    11    1
    11    11    12    1
    12    12    13    1
    13    13    14    1
    14    14    15    1
    15    15    16    1
    16     3     4   ar
    17     4     5   ar
    18     5     6   ar
    19     6     7    1
    20     6     8   ar
    21     8     9   ar
    22     9    27    1
    23    27    28    1
    24    28    29    1
    25    29    30    1
    26    30    31    1
    27    31    32    1
    28    31    33    1
    29    31    34    1
    30     9    10   ar
    31    25    26   ar
    32    26    21   ar
    33    10     1   ar
    34    16    11    1
    35    10     5   ar
    36    18    19    1
    37    14    17    1
@<TRIPOS>MOLECULE
*****
 34 37 0 0 0
SMALL
GASTEIGER

@<TRIPOS>ATOM
      1 C         141.4405  140.3614  165.0470 C.ar    1  UNL1        0.1550
      2 N         141.8605  141.0051  166.3350 N.ar    1  UNL1       -0.1970
      3 C         141.1118  140.7088  167.6006 C.ar    1  UNL1        0.2215
      4 N         139.9432  139.7687  167.5780 N.ar    1  UNL1       -0.2108
      5 C         139.5232  139.1250  166.2899 C.ar    1  UNL1        0.1193
      6 C         138.4195  138.1638  165.9613 C.ar    1  UNL1        0.0981
      7 C         137.4241  137.5994  166.9311 C.3     1  UNL1        0.0556
      8 N         138.4861  137.8660  164.4926 N.ar    1  UNL1       -0.1719
      9 N         139.6309  138.6432  163.9136 N.ar    1  UNL1       -0.2444
     10 C         140.2719  139.4213  165.0244 C.ar    1  UNL1        0.1284
     11 N         141.5318  141.3525  168.8887 N.pl3   1  UNL1       -0.2753
     12 C         142.7524  142.2234  168.9289 C.3     1  UNL1        0.1107
     13 C         143.1724  142.8671  170.2170 C.3     1  UNL1        0.0904
     14 N         142.3717  142.6399  171.4650 N.3     1  UNL1       -0.2946
     15 C         141.1511  141.7690  171.4248 C.3     1  UNL1        0.0904
     16 C         140.7312  141.1253  170.1366 C.3     1  UNL1        0.1107
     17 H         142.0682  143.5575  171.7912 H       1  UNL1        0.1233
     18 N         142.1892  140.6577  163.7813 N.pl3   1  UNL1       -0.2821
     19 H         142.4388  139.9243  163.1738 H       1  UNL1        0.1551
     20 C         140.7888  145.5774  162.8675 C.3     1  UNL1        0.0521
     21 C         141.8574  144.5313  162.9845 C.ar    1  UNL1        0.0608
     22 C         143.2945  144.8990  162.7616 C.ar    1  UNL1        0.0148
     23 C         144.3631  143.8529  162.8786 C.ar    1  UNL1        0.0041
     24 C         143.9947  142.4391  163.2185 C.ar    1  UNL1        0.0344
     25 C         142.5577  142.0715  163.4414 C.ar    1  UNL1        0.1328
     26 N         141.4890  143.1176  163.3244 N.ar    1  UNL1       -0.2349
     27 C         140.0596  138.6425  162.4761 C.3     1  UNL1        0.1595
     28 C         139.5629  139.7084  161.5449 C.3     1  UNL1        0.1688
     29 O         139.2727  141.0844  162.0665 O.3     1  UNL1       -0.3435
     30 C         137.8798  141.4486  162.4877 C.3     1  UNL1        0.2459
     31 C         137.6639  142.5006  163.5349 C.3     1  UNL1        0.4248
     32 F         137.4480  143.5527  164.5820 F       1  UNL1       -0.1674
     33 F         137.5559  143.5449  162.4636 F       1  UNL1       -0.1674
     34 F         137.7719  141.4563  164.6062 F       1  UNL1       -0.1674
@<TRIPOS>BOND
     1    20    21    1
     2    21    22   ar
     3    22    23   ar
     4    23    24   ar
     5    24    25   ar
     6    25    18    1
     7    18     1    1
     8     1     2   ar
     9     2     3   ar
    10     3    11    1
    11    11    12    1
    12    12    13    1
    13    13    14    1
    14    14    15    1
    15    15    16    1
    16     3     4   ar
    17     4     5   ar
    18     5     6   ar
    19     6     7    1
    20     6     8   ar
    21     8     9   ar
    22     9    27    1
    23    27    28    1
    24    28    29    1
    25    29    30    1
    26    30    31    1
    27    31    32    1
    28    31    33    1
    29    31    34    1
    30     9    10   ar
    31    25    26   ar
    32    26    21   ar
    33    10     1   ar
    34    16    11    1
    35    10     5   ar
    36    18    19    1
    37    14    17    1
@<TRIPOS>MOLECULE
*****
 34 37 0 0 0
SMALL
GASTEIGER

@<TRIPOS>ATOM
      1 C         143.0644  138.0998  160.5213 C.ar    1  UNL1        0.1550
      2 N         142.7290  137.2446  159.3356 N.ar    1  UNL1       -0.1970
      3 C         142.8624  137.8000  157.9486 C.ar    1  UNL1        0.2215
      4 N         143.3313  139.2106  157.7474 N.ar    1  UNL1       -0.2108
      5 C         143.6667  140.0658  158.9332 C.ar    1  UNL1        0.1193
      6 C         144.1495  141.4815  159.0453 C.ar    1  UNL1        0.0981
      7 C         144.4199  142.4139  157.9019 C.3     1  UNL1        0.0556
      8 N         144.3145  141.8011  160.5016 N.ar    1  UNL1       -0.1719
      9 N         143.9336  140.5829  161.2895 N.ar    1  UNL1       -0.2444
     10 C         143.5333  139.5104  160.3202 C.ar    1  UNL1        0.1284
     11 N         142.5270  136.9448  156.7627 N.pl3   1  UNL1       -0.2753
     12 C         143.6103  136.1870  156.0542 C.3     1  UNL1        0.1107
     13 C         143.2750  135.3318  154.8684 C.3     1  UNL1        0.0904
     14 N         141.8562  135.2345  154.3910 N.3     1  UNL1       -0.2946
     15 C         140.7729  135.9923  155.0996 C.3     1  UNL1        0.0904
     16 C         141.1083  136.8475  156.2855 C.3     1  UNL1        0.1107
     17 H         141.5994  134.2481  154.4301 H       1  UNL1        0.1233
     18 N         142.9310  137.5444  161.9084 N.pl3   1  UNL1       -0.2821
     19 H         143.7082  137.1326  162.3506 H       1  UNL1        0.1551
     20 C         137.7697  138.1312  161.7779 C.3     1  UNL1        0.0521
     21 C         139.0327  137.9098  162.5562 C.ar    1  UNL1        0.0608
     22 C         138.9780  137.7604  164.0478 C.ar    1  UNL1        0.0148
     23 C         140.2409  137.5390  164.8262 C.ar    1  UNL1        0.0041
     24 C         141.5586  137.4670  164.1130 C.ar    1  UNL1        0.0344
     25 C         141.6133  137.6164  162.6215 C.ar    1  UNL1        0.1328
     26 N         140.3503  137.8378  161.8431 N.ar    1  UNL1       -0.2349
     27 C         143.9502  140.4588  162.7843 C.3     1  UNL1        0.1595
     28 C         145.2313  140.6565  163.5391 C.3     1  UNL1        0.1688
     29 O         145.5053  141.9634  164.2224 O.3     1  UNL1       -0.3435
     30 C         144.4001  142.6815  164.9385 C.3     1  UNL1        0.2459
     31 C         144.1486  144.1346  164.6641 C.3     1  UNL1        0.4248
     32 F         143.8970  145.5876  164.3896 F       1  UNL1       -0.1674
     33 F         143.2698  143.7638  163.5064 F       1  UNL1       -0.1674
     34 F         145.0273  144.5054  165.8218 F       1  UNL1       -0.1674
@<TRIPOS>BOND
     1    20    21    1
     2    21    22   ar
     3    22    23   ar
     4    23    24   ar
     5    24    25   ar
     6    25    18    1
     7    18     1    1
     8     1     2   ar
     9     2     3   ar
    10     3    11    1
    11    11    12    1
    12    12    13    1
    13    13    14    1
    14    14    15    1
    15    15    16    1
    16     3     4   ar
    17     4     5   ar
    18     5     6   ar
    19     6     7    1
    20     6     8   ar
    21     8     9   ar
    22     9    27    1
    23    27    28    1
    24    28    29    1
    25    29    30    1
    26    30    31    1
    27    31    32    1
    28    31    33    1
    29    31    34    1
    30     9    10   ar
    31    25    26   ar
    32    26    21   ar
    33    10     1   ar
    34    16    11    1
    35    10     5   ar
    36    18    19    1
    37    14    17    1
@<TRIPOS>MOLECULE
*****
 34 37 0 0 0
SMALL
GASTEIGER

@<TRIPOS>ATOM
      1 C         139.9453  141.6470  165.0918 C.ar    1  UNL1        0.1550
      2 N         139.8563  141.2907  166.5461 N.ar    1  UNL1       -0.1970
      3 C         140.9850  141.6335  167.4726 C.ar    1  UNL1        0.2215
      4 N         142.2026  142.3326  166.9449 N.ar    1  UNL1       -0.2108
      5 C         142.2916  142.6890  165.4906 C.ar    1  UNL1        0.1193
      6 C         143.3578  143.3745  164.6886 C.ar    1  UNL1        0.0981
      7 C         144.6644  143.8888  165.2162 C.3     1  UNL1        0.0556
      8 N         142.8881  143.4553  163.2663 N.ar    1  UNL1       -0.1719
      9 N         141.5316  142.8198  163.1893 N.ar    1  UNL1       -0.2444
     10 C         141.1629  142.3462  164.5640 C.ar    1  UNL1        0.1284
     11 N         140.8960  141.2771  168.9270 N.pl3   1  UNL1       -0.2753
     12 C         139.9114  140.2431  169.3870 C.3     1  UNL1        0.1107
     13 C         139.8225  139.8868  170.8413 C.3     1  UNL1        0.0904
     14 N         140.7181  140.5644  171.8357 N.3     1  UNL1       -0.2946
     15 C         141.7027  141.5983  171.3757 C.3     1  UNL1        0.0904
     16 C         141.7916  141.9547  169.9214 C.3     1  UNL1        0.1107
     17 H         141.2558  139.8299  172.2960 H       1  UNL1        0.1233
     18 N         138.8166  141.3042  164.1651 N.pl3   1  UNL1       -0.2821
     19 H         137.9755  141.8144  164.2040 H       1  UNL1        0.1551
     20 C         141.7072  137.5498  162.0323 C.3     1  UNL1        0.0521
     21 C         140.4148  138.3069  162.1128 C.ar    1  UNL1        0.0608
     22 C         139.2752  137.9439  161.2074 C.ar    1  UNL1        0.0148
     23 C         137.9829  138.7010  161.2879 C.ar    1  UNL1        0.0041
     24 C         137.8300  139.8211  162.2738 C.ar    1  UNL1        0.0344
     25 C         138.9695  140.1841  163.1792 C.ar    1  UNL1        0.1328
     26 N         140.2619  139.4270  163.0987 N.ar    1  UNL1       -0.2349
     27 C         140.6913  142.6821  161.9544 C.3     1  UNL1        0.1595
     28 C         139.8592  143.8368  161.4809 C.3     1  UNL1        0.1688
     29 O         139.4207  144.8932  162.4513 O.3     1  UNL1       -0.3435
     30 C         138.3086  144.6094  163.4170 C.3     1  UNL1        0.2459
     31 C         138.5055  144.8608  164.8826 C.3     1  UNL1        0.4248
     32 F         138.7023  145.1121  166.3482 F       1  UNL1       -0.1674
     33 F         137.0990  144.4124  165.1485 F       1  UNL1       -0.1674
     34 F         139.9120  145.3092  164.6167 F       1  UNL1       -0.1674
@<TRIPOS>BOND
     1    20    21    1
     2    21    22   ar
     3    22    23   ar
     4    23    24   ar
     5    24    25   ar
     6    25    18    1
     7    18     1    1
     8     1     2   ar
     9     2     3   ar
    10     3    11    1
    11    11    12    1
    12    12    13    1
    13    13    14    1
    14    14    15    1
    15    15    16    1
    16     3     4   ar
    17     4     5   ar
    18     5     6   ar
    19     6     7    1
    20     6     8   ar
    21     8     9   ar
    22     9    27    1
    23    27    28    1
    24    28    29    1
    25    29    30    1
    26    30    31    1
    27    31    32    1
    28    31    33    1
    29    31    34    1
    30     9    10   ar
    31    25    26   ar
    32    26    21   ar
    33    10     1   ar
    34    16    11    1
    35    10     5   ar
    36    18    19    1
    37    14    17    1
@<TRIPOS>MOLECULE
*****
 34 37 0 0 0
SMALL
GASTEIGER

@<TRIPOS>ATOM
      1 C         140.1626  142.0747  165.1071 C.ar    1  UNL1        0.1550
      2 N         140.6601  142.3378  166.4974 N.ar    1  UNL1       -0.1970
      3 C         140.4835  141.3001  167.5661 C.ar    1  UNL1        0.2215
      4 N         139.8094  139.9993  167.2443 N.ar    1  UNL1       -0.2108
      5 C         139.3119  139.7362  165.8539 C.ar    1  UNL1        0.1193
      6 C         138.6140  138.5568  165.2440 C.ar    1  UNL1        0.0981
      7 C         138.2371  137.2909  165.9549 C.3     1  UNL1        0.0556
      8 N         138.3593  138.8656  163.7984 N.ar    1  UNL1       -0.1719
      9 N         138.8998  140.2358  163.5148 N.ar    1  UNL1       -0.2444
     10 C         139.4885  140.7739  164.7853 C.ar    1  UNL1        0.1284
     11 N         140.9810  141.5632  168.9565 N.pl3   1  UNL1       -0.2753
     12 C         142.0165  142.6221  169.1948 C.3     1  UNL1        0.1107
     13 C         142.5140  142.8852  170.5852 C.3     1  UNL1        0.0904
     14 N         141.9761  142.0894  171.7374 N.3     1  UNL1       -0.2946
     15 C         140.9407  141.0306  171.4991 C.3     1  UNL1        0.0904
     16 C         140.4432  140.7675  170.1087 C.3     1  UNL1        0.1107
     17 H         141.5690  142.7574  172.3920 H       1  UNL1        0.1233
     18 N         140.3392  143.1124  164.0383 N.pl3   1  UNL1       -0.2821
     19 H         139.5537  143.5755  163.6673 H       1  UNL1        0.1551
     20 C         144.7248  141.6782  161.6488 C.3     1  UNL1        0.0521
     21 C         143.9055  142.7273  162.3402 C.ar    1  UNL1        0.0608
     22 C         144.4596  144.1085  162.5283 C.ar    1  UNL1        0.0148
     23 C         143.6403  145.1575  163.2197 C.ar    1  UNL1        0.0041
     24 C         142.2668  144.8255  163.7231 C.ar    1  UNL1        0.0344
     25 C         141.7127  143.4444  163.5350 C.ar    1  UNL1        0.1328
     26 N         142.5320  142.3952  162.8436 N.ar    1  UNL1       -0.2349
     27 C         138.8587  140.9437  162.1930 C.3     1  UNL1        0.1595
     28 C         137.8860  142.0640  161.9722 C.3     1  UNL1        0.1688
     29 O         138.3641  143.3750  161.4220 O.3     1  UNL1       -0.3435
     30 C         139.2253  143.4038  160.1942 C.3     1  UNL1        0.2459
     31 C         140.5763  144.0538  160.2408 C.3     1  UNL1        0.4248
     32 F         141.9274  144.7037  160.2874 F       1  UNL1       -0.1674
     33 F         141.2265  142.7166  160.0429 F       1  UNL1       -0.1674
     34 F         139.9262  145.3910  160.4387 F       1  UNL1       -0.1674
@<TRIPOS>BOND
     1    20    21    1
     2    21    22   ar
     3    22    23   ar
     4    23    24   ar
     5    24    25   ar
     6    25    18    1
     7    18     1    1
     8     1     2   ar
     9     2     3   ar
    10     3    11    1
    11    11    12    1
    12    12    13    1
    13    13    14    1
    14    14    15    1
    15    15    16    1
    16     3     4   ar
    17     4     5   ar
    18     5     6   ar
    19     6     7    1
    20     6     8   ar
    21     8     9   ar
    22     9    27    1
    23    27    28    1
    24    28    29    1
    25    29    30    1
    26    30    31    1
    27    31    32    1
    28    31    33    1
    29    31    34    1
    30     9    10   ar
    31    25    26   ar
    32    26    21   ar
    33    10     1   ar
    34    16    11    1
    35    10     5   ar
    36    18    19    1
    37    14    17    1
@<TRIPOS>MOLECULE
*****
 34 37 0 0 0
SMALL
GASTEIGER

@<TRIPOS>ATOM
      1 C         140.1909  142.0867  165.1201 C.ar    1  UNL1        0.1550
      2 N         140.7000  142.3576  166.5048 N.ar    1  UNL1       -0.1970
      3 C         140.5275  141.3282  167.5820 C.ar    1  UNL1        0.2215
      4 N         139.8460  140.0279  167.2746 N.ar    1  UNL1       -0.2108
      5 C         139.3368  139.7569  165.8900 C.ar    1  UNL1        0.1193
      6 C         138.6298  138.5760  165.2937 C.ar    1  UNL1        0.0981
      7 C         138.2533  137.3167  166.0164 C.3     1  UNL1        0.0556
      8 N         138.3652  138.8756  163.8479 N.ar    1  UNL1       -0.1719
      9 N         138.9088  140.2417  163.5506 N.ar    1  UNL1       -0.2444
     10 C         139.5093  140.7863  164.8127 C.ar    1  UNL1        0.1284
     11 N         141.0367  141.5991  168.9668 N.pl3   1  UNL1       -0.2753
     12 C         142.1023  142.6319  169.1854 C.3     1  UNL1        0.1107
     13 C         142.6114  142.9029  170.5700 C.3     1  UNL1        0.0904
     14 N         142.0549  142.1410  171.7362 N.3     1  UNL1       -0.2946
     15 C         140.9893  141.1082  171.5177 C.3     1  UNL1        0.0904
     16 C         140.4802  140.8373  170.1329 C.3     1  UNL1        0.1107
     17 H         141.6689  142.8305  172.3812 H       1  UNL1        0.1233
     18 N         140.3633  143.1161  164.0428 N.pl3   1  UNL1       -0.2821
     19 H         139.5767  143.5795  163.6742 H       1  UNL1        0.1551
     20 C         144.6381  141.7179  161.4405 C.3     1  UNL1        0.0521
     21 C         143.8716  142.7405  162.2259 C.ar    1  UNL1        0.0608
     22 C         144.4761  144.0866  162.4957 C.ar    1  UNL1        0.0148
     23 C         143.7096  145.1091  163.2811 C.ar    1  UNL1        0.0041
     24 C         142.3387  144.7856  163.7968 C.ar    1  UNL1        0.0344
     25 C         141.7342  143.4396  163.5271 C.ar    1  UNL1        0.1328
     26 N         142.5007  142.4170  162.7416 N.ar    1  UNL1       -0.2349
     27 C         138.8604  140.9404  162.2242 C.3     1  UNL1        0.1595
     28 C         139.8815  140.6238  161.1720 C.3     1  UNL1        0.1688
     29 O         140.4853  139.2525  161.1014 O.3     1  UNL1       -0.3435
     30 C         141.7793  138.9657  161.8036 C.3     1  UNL1        0.2459
     31 C         141.7734  138.2674  163.1312 C.3     1  UNL1        0.4248
     32 F         141.7675  137.5692  164.4587 F       1  UNL1       -0.1674
     33 F         140.8735  137.2070  162.5694 F       1  UNL1       -0.1674
     34 F         142.6733  139.3279  163.6929 F       1  UNL1       -0.1674
@<TRIPOS>BOND
     1    20    21    1
     2    21    22   ar
     3    22    23   ar
     4    23    24   ar
     5    24    25   ar
     6    25    18    1
     7    18     1    1
     8     1     2   ar
     9     2     3   ar
    10     3    11    1
    11    11    12    1
    12    12    13    1
    13    13    14    1
    14    14    15    1
    15    15    16    1
    16     3     4   ar
    17     4     5   ar
    18     5     6   ar
    19     6     7    1
    20     6     8   ar
    21     8     9   ar
    22     9    27    1
    23    27    28    1
    24    28    29    1
    25    29    30    1
    26    30    31    1
    27    31    32    1
    28    31    33    1
    29    31    34    1
    30     9    10   ar
    31    25    26   ar
    32    26    21   ar
    33    10     1   ar
    34    16    11    1
    35    10     5   ar
    36    18    19    1
    37    14    17    1
@<TRIPOS>MOLECULE
*****
 34 37 0 0 0
SMALL
GASTEIGER

@<TRIPOS>ATOM
      1 C         141.3610  141.3590  164.8264 C.ar    1  UNL1        0.1550
      2 N         141.6913  141.7588  166.2338 N.ar    1  UNL1       -0.1970
      3 C         141.1008  141.0022  167.3866 C.ar    1  UNL1        0.2215
      4 N         140.1799  139.8459  167.1318 N.ar    1  UNL1       -0.2108
      5 C         139.8495  139.4462  165.7244 C.ar    1  UNL1        0.1193
      6 C         138.9800  138.3580  165.1679 C.ar    1  UNL1        0.0981
      7 C         138.1951  137.3609  165.9677 C.3     1  UNL1        0.0556
      8 N         139.0331  138.4420  163.6711 N.ar    1  UNL1       -0.1719
      9 N         139.9355  139.5821  163.3026 N.ar    1  UNL1       -0.2444
     10 C         140.4400  140.2027  164.5716 C.ar    1  UNL1        0.1284
     11 N         141.4311  141.4020  168.7941 N.pl3   1  UNL1       -0.2753
     12 C         142.4201  142.5005  169.0493 C.3     1  UNL1        0.1107
     13 C         142.7505  142.9003  170.4568 C.3     1  UNL1        0.0904
     14 N         142.0919  142.2014  171.6092 N.3     1  UNL1       -0.2946
     15 C         141.1029  141.1029  171.3540 C.3     1  UNL1        0.0904
     16 C         140.7726  140.7031  169.9464 C.3     1  UNL1        0.1107
     17 H         141.6043  142.9173  172.1479 H       1  UNL1        0.1233
     18 N         141.9515  142.1156  163.6735 N.pl3   1  UNL1       -0.2821
     19 H         142.8205  141.8433  163.2994 H       1  UNL1        0.1551
     20 C         141.0541  145.3372  159.6966 C.3     1  UNL1        0.0521
     21 C         140.7693  144.8979  161.1022 C.ar    1  UNL1        0.0608
     22 C         139.7511  145.6300  161.9252 C.ar    1  UNL1        0.0148
     23 C         139.4663  145.1907  163.3308 C.ar    1  UNL1        0.0041
     24 C         140.1998  144.0192  163.9136 C.ar    1  UNL1        0.0344
     25 C         141.2180  143.2871  163.0908 C.ar    1  UNL1        0.1328
     26 N         141.5028  143.7264  161.6850 N.ar    1  UNL1       -0.2349
     27 C         140.2739  140.0240  161.9097 C.3     1  UNL1        0.1595
     28 C         141.4255  139.3956  161.1825 C.3     1  UNL1        0.1688
     29 O         142.0611  138.1479  161.7201 O.3     1  UNL1       -0.3435
     30 C         143.4966  138.1647  162.1548 C.3     1  UNL1        0.2459
     31 C         143.9344  139.0773  163.2618 C.3     1  UNL1        0.4248
     32 F         144.3721  139.9897  164.3690 F       1  UNL1       -0.1674
     33 F         143.1307  138.2744  164.2414 F       1  UNL1       -0.1674
     34 F         144.7380  139.8801  162.2823 F       1  UNL1       -0.1674
@<TRIPOS>BOND
     1    20    21    1
     2    21    22   ar
     3    22    23   ar
     4    23    24   ar
     5    24    25   ar
     6    25    18    1
     7    18     1    1
     8     1     2   ar
     9     2     3   ar
    10     3    11    1
    11    11    12    1
    12    12    13    1
    13    13    14    1
    14    14    15    1
    15    15    16    1
    16     3     4   ar
    17     4     5   ar
    18     5     6   ar
    19     6     7    1
    20     6     8   ar
    21     8     9   ar
    22     9    27    1
    23    27    28    1
    24    28    29    1
    25    29    30    1
    26    30    31    1
    27    31    32    1
    28    31    33    1
    29    31    34    1
    30     9    10   ar
    31    25    26   ar
    32    26    21   ar
    33    10     1   ar
    34    16    11    1
    35    10     5   ar
    36    18    19    1
    37    14    17    1
@<TRIPOS>MOLECULE
*****
 34 37 0 0 0
SMALL
GASTEIGER

@<TRIPOS>ATOM
      1 C         142.6337  142.0620  164.9906 C.ar    1  UNL1        0.1550
      2 N         142.7426  141.6002  166.4136 N.ar    1  UNL1       -0.1970
      3 C         141.7247  142.0386  167.4243 C.ar    1  UNL1        0.2215
      4 N         140.5979  142.9387  167.0120 N.ar    1  UNL1       -0.2108
      5 C         140.4890  143.4005  165.5891 C.ar    1  UNL1        0.1193
      6 C         139.4959  144.2838  164.8937 C.ar    1  UNL1        0.0981
      7 C         138.3073  144.9437  165.5275 C.3     1  UNL1        0.0556
      8 N         139.9001  144.3913  163.4532 N.ar    1  UNL1       -0.1719
      9 N         141.1429  143.5745  163.2582 N.ar    1  UNL1       -0.2444
     10 C         141.5069  142.9621  164.5784 C.ar    1  UNL1        0.1284
     11 N         141.8336  141.5768  168.8473 N.pl3   1  UNL1       -0.2753
     12 C         140.9674  142.1947  169.9047 C.3     1  UNL1        0.1107
     13 C         141.0762  141.7330  171.3277 C.3     1  UNL1        0.0904
     14 N         142.0513  140.6533  171.6934 N.3     1  UNL1       -0.2946
     15 C         142.9175  140.0354  170.6361 C.3     1  UNL1        0.0904
     16 C         142.8086  140.4972  169.2130 C.3     1  UNL1        0.1107
     17 H         141.5095  139.8961  172.1099 H       1  UNL1        0.1233
     18 N         143.6517  141.6236  163.9798 N.pl3   1  UNL1       -0.2821
     19 H         144.4656  142.1587  163.8368 H       1  UNL1        0.1551
     20 C         141.0652  137.1824  163.2140 C.3     1  UNL1        0.0521
     21 C         142.1363  138.1492  162.8040 C.ar    1  UNL1        0.0608
     22 C         142.9853  137.8622  161.6012 C.ar    1  UNL1        0.0148
     23 C         144.0564  138.8290  161.1912 C.ar    1  UNL1        0.0041
     24 C         144.2785  140.0827  161.9841 C.ar    1  UNL1        0.0344
     25 C         143.4296  140.3698  163.1869 C.ar    1  UNL1        0.1328
     26 N         142.3584  139.4030  163.5969 N.ar    1  UNL1       -0.2349
     27 C         141.8906  143.4005  161.9696 C.3     1  UNL1        0.1595
     28 C         141.2843  142.6042  160.8523 C.3     1  UNL1        0.1688
     29 O         140.8451  141.1901  161.0916 O.3     1  UNL1       -0.3435
     30 C         139.3847  140.8480  161.0913 C.3     1  UNL1        0.2459
     31 C         138.3948  141.7850  161.7176 C.3     1  UNL1        0.4248
     32 F         137.4049  142.7220  162.3437 F       1  UNL1       -0.1674
     33 F         137.9919  142.2692  160.3563 F       1  UNL1       -0.1674
     34 F         138.7978  141.3008  163.0789 F       1  UNL1       -0.1674
@<TRIPOS>BOND
     1    20    21    1
     2    21    22   ar
     3    22    23   ar
     4    23    24   ar
     5    24    25   ar
     6    25    18    1
     7    18     1    1
     8     1     2   ar
     9     2     3   ar
    10     3    11    1
    11    11    12    1
    12    12    13    1
    13    13    14    1
    14    14    15    1
    15    15    16    1
    16     3     4   ar
    17     4     5   ar
    18     5     6   ar
    19     6     7    1
    20     6     8   ar
    21     8     9   ar
    22     9    27    1
    23    27    28    1
    24    28    29    1
    25    29    30    1
    26    30    31    1
    27    31    32    1
    28    31    33    1
    29    31    34    1
    30     9    10   ar
    31    25    26   ar
    32    26    21   ar
    33    10     1   ar
    34    16    11    1
    35    10     5   ar
    36    18    19    1
    37    14    17    1
