@<TRIPOS>MOLECULE
*****
 40 46 0 0 0
SMALL
GASTEIGER

@<TRIPOS>ATOM
      1 C         138.4704  141.8295  164.4661 C.3     1  UNL1        0.0955
      2 C         138.1454  141.8168  163.0017 C.3     1  UNL1        0.0287
      3 C         138.1494  143.0979  162.2214 C.3     1  UNL1        0.0193
      4 C         138.4783  144.3917  162.9054 C.3     1  UNL1        0.0700
      5 C         138.8033  144.4044  164.3697 C.3     1  UNL1        0.0193
      6 C         138.7994  143.1233  165.1501 C.3     1  UNL1        0.0287
      7 C         138.4889  143.7151  163.3747 C.3     1  UNL1        0.1562
      8 O         138.4853  142.5568  164.0803 O.3     1  UNL1       -0.3571
      9 N         138.4823  145.6727  162.1251 N.3     1  UNL1       -0.2938
     10 H         138.1783  146.4075  162.7639 H       1  UNL1        0.1235
     11 C         139.7485  146.1549  161.4816 C.3     1  UNL1        0.0974
     12 C         140.8633  145.1904  161.2042 C.ar    1  UNL1        0.0180
     13 C         140.9743  144.5398  159.8572 C.ar    1  UNL1        0.0590
     14 CL        139.9706  144.8538  158.7875 Cl      1  UNL1       -0.0824
     15 C         142.0891  143.5753  159.5797 C.ar    1  UNL1        0.0512
     16 C         143.0928  143.2613  160.6492 C.ar    1  UNL1        0.1741
     17 C         142.9818  143.9118  161.9962 C.ar    1  UNL1        0.1826
     18 C         141.8671  144.8763  162.2737 C.ar    1  UNL1        0.0927
     19 CL        141.7561  145.5269  163.6207 Cl      1  UNL1       -0.0792
     20 O         143.9855  143.5979  163.0658 O.3     1  UNL1       -0.4675
     21 C         145.1002  142.6333  162.7883 C.3     1  UNL1        0.2527
     22 C         145.2113  141.9828  161.4413 C.3     1  UNL1        0.2526
     23 O         144.2076  142.2967  160.3717 O.3     1  UNL1       -0.4683
     24 C         138.4664  140.5485  165.2464 C.3     1  UNL1        0.0604
     25 O         138.8843  141.0036  170.3357 O.2     1  UNL1       -0.2670
     26 C         140.0833  140.3582  169.7066 C.ar    1  UNL1        0.2611
     27 C         141.2368  139.9244  170.5617 C.ar    1  UNL1        0.0623
     28 C         142.4358  139.2790  169.9326 C.ar    1  UNL1        0.0254
     29 C         142.4814  139.0674  168.4483 C.ar    1  UNL1        0.0972
     30 N         143.5346  138.4575  167.5600 N.ar    1  UNL1       -0.2400
     31 C         143.4380  138.3122  166.0702 C.ar    1  UNL1        0.1282
     32 C         142.2157  138.7954  165.3473 C.ar    1  UNL1        0.1588
     33 F         142.1191  138.6501  163.8575 F       1  UNL1       -0.2027
     34 C         141.0901  139.4238  166.1142 C.ar    1  UNL1        0.0500
     35 C         141.3279  139.5012  167.5932 C.ar    1  UNL1        0.0806
     36 N         140.1289  140.1466  168.2223 N.ar    1  UNL1       -0.2915
     37 C         139.1501  140.4680  167.1321 C.3     1  UNL1        0.1402
     38 C         139.7441  140.0213  165.8292 C.3     1  UNL1        0.1335
     39 O         140.0711  139.6848  164.4045 O.3     1  UNL1       -0.3806
     40 H         139.3373  139.9570  163.8314 H       1  UNL1        0.2108
@<TRIPOS>BOND
     1    25    26    2
     2    26    27   ar
     3    27    28   ar
     4    28    29   ar
     5    29    30   ar
     6    30    31   ar
     7    31    32   ar
     8    32    33    1
     9    32    34   ar
    10    34    35   ar
    11    35    36   ar
    12    36    37    1
    13    37    38    1
    14    38    39    1
    15    38    24    1
    16    24     1    1
    17     1     2    1
    18     2     3    1
    19     3     4    1
    20     4     9    1
    21     9    11    1
    22    11    12    1
    23    12    13   ar
    24    13    14    1
    25    13    15   ar
    26    15    16   ar
    27    16    17   ar
    28    17    18   ar
    29    18    19    1
    30    17    20    1
    31    20    21    1
    32    21    22    1
    33    22    23    1
    34     4     5    1
    35     5     6    1
    36     4     7    1
    37     7     8    1
    38    36    26   ar
    39     6     1    1
    40    35    29   ar
    41     8     1    1
    42    38    34    1
    43    18    12   ar
    44    23    16    1
    45    39    40    1
    46     9    10    1
@<TRIPOS>MOLECULE
*****
 40 46 0 0 0
SMALL
GASTEIGER

@<TRIPOS>ATOM
      1 C         138.3242  141.7980  164.5001 C.3     1  UNL1        0.0955
      2 C         139.1947  142.8150  165.1770 C.3     1  UNL1        0.0287
      3 C         140.1352  142.3912  166.2661 C.3     1  UNL1        0.0193
      4 C         140.2051  140.9507  166.6782 C.3     1  UNL1        0.0700
      5 C         139.3346  139.9338  166.0013 C.3     1  UNL1        0.0193
      6 C         138.3941  140.3575  164.9122 C.3     1  UNL1        0.0287
      7 C         139.6742  141.1351  166.0763 C.3     1  UNL1        0.1562
      8 O         138.8239  141.5182  165.0916 O.3     1  UNL1       -0.3571
      9 N         141.1456  140.5270  167.7673 N.3     1  UNL1       -0.2938
     10 H         140.7404  139.6968  168.1997 H       1  UNL1        0.1235
     11 C         142.5706  140.1928  167.4395 C.3     1  UNL1        0.0974
     12 C         143.0565  140.2869  166.0234 C.ar    1  UNL1        0.0180
     13 C         143.6833  141.5566  165.5285 C.ar    1  UNL1        0.0590
     14 CL        143.8243  142.7322  166.4495 Cl      1  UNL1       -0.0824
     15 C         144.1691  141.6508  164.1125 C.ar    1  UNL1        0.0512
     16 C         144.0282  140.4753  163.1914 C.ar    1  UNL1        0.1741
     17 C         143.4014  139.2057  163.6864 C.ar    1  UNL1        0.1826
     18 C         142.9155  139.1115  165.1024 C.ar    1  UNL1        0.0927
     19 CL        142.2887  137.8418  165.5973 Cl      1  UNL1       -0.0792
     20 O         143.2604  138.0301  162.7654 O.3     1  UNL1       -0.4675
     21 C         143.7462  138.1244  161.3494 C.3     1  UNL1        0.2527
     22 C         144.3730  139.3939  160.8544 C.3     1  UNL1        0.2526
     23 O         144.5140  140.5695  161.7754 O.3     1  UNL1       -0.4683
     24 C         137.3837  142.2217  163.4110 C.3     1  UNL1        0.0604
     25 O         140.2809  146.1341  161.8041 O.2     1  UNL1       -0.2670
     26 C         140.0239  145.1182  160.7309 C.ar    1  UNL1        0.2611
     27 C         140.5983  145.3147  159.3592 C.ar    1  UNL1        0.0623
     28 C         140.3413  144.2988  158.2859 C.ar    1  UNL1        0.0254
     29 C         139.5098  143.0865  158.5843 C.ar    1  UNL1        0.0972
     30 N         139.0952  141.9244  157.7195 N.ar    1  UNL1       -0.2400
     31 C         138.2492  140.7682  158.1637 C.ar    1  UNL1        0.1282
     32 C         137.7436  140.7073  159.5746 C.ar    1  UNL1        0.1588
     33 F         136.8976  139.5511  160.0189 F       1  UNL1       -0.2027
     34 C         138.0841  141.8027  160.5413 C.ar    1  UNL1        0.0500
     35 C         138.9354  142.8901  159.9559 C.ar    1  UNL1        0.0806
     36 N         139.1925  143.9060  161.0292 N.ar    1  UNL1       -0.2915
     37 C         138.4999  143.4463  162.2779 C.3     1  UNL1        0.1402
     38 C         137.8149  142.1464  161.9763 C.3     1  UNL1        0.1335
     39 O         137.0397  140.8622  161.9747 O.3     1  UNL1       -0.3806
     40 H         136.6580  140.7139  162.8540 H       1  UNL1        0.2108
@<TRIPOS>BOND
     1    25    26    2
     2    26    27   ar
     3    27    28   ar
     4    28    29   ar
     5    29    30   ar
     6    30    31   ar
     7    31    32   ar
     8    32    33    1
     9    32    34   ar
    10    34    35   ar
    11    35    36   ar
    12    36    37    1
    13    37    38    1
    14    38    39    1
    15    38    24    1
    16    24     1    1
    17     1     2    1
    18     2     3    1
    19     3     4    1
    20     4     9    1
    21     9    11    1
    22    11    12    1
    23    12    13   ar
    24    13    14    1
    25    13    15   ar
    26    15    16   ar
    27    16    17   ar
    28    17    18   ar
    29    18    19    1
    30    17    20    1
    31    20    21    1
    32    21    22    1
    33    22    23    1
    34     4     5    1
    35     5     6    1
    36     4     7    1
    37     7     8    1
    38    36    26   ar
    39     6     1    1
    40    35    29   ar
    41     8     1    1
    42    38    34    1
    43    18    12   ar
    44    23    16    1
    45    39    40    1
    46     9    10    1
@<TRIPOS>MOLECULE
*****
 40 46 0 0 0
SMALL
GASTEIGER

@<TRIPOS>ATOM
      1 C         137.8943  140.6357  161.8629 C.3     1  UNL1        0.0955
      2 C         138.0111  141.9878  161.2238 C.3     1  UNL1        0.0287
      3 C         137.9620  143.2246  162.0710 C.3     1  UNL1        0.0193
      4 C         137.7961  143.1094  163.5574 C.3     1  UNL1        0.0700
      5 C         137.6793  141.7574  164.1964 C.3     1  UNL1        0.0193
      6 C         137.7284  140.5205  163.3492 C.3     1  UNL1        0.0287
      7 C         137.8175  142.4032  163.1344 C.3     1  UNL1        0.1562
      8 O         137.8619  141.2849  162.3683 O.3     1  UNL1       -0.3571
      9 N         137.7470  144.3462  164.4047 N.3     1  UNL1       -0.2938
     10 H         137.1966  144.1150  165.2316 H       1  UNL1        0.1235
     11 C         139.0199  144.9719  164.8928 C.3     1  UNL1        0.0974
     12 C         140.3378  144.5260  164.3321 C.ar    1  UNL1        0.0180
     13 C         140.8755  145.1615  163.0843 C.ar    1  UNL1        0.0590
     14 CL        140.0953  146.2428  162.3971 Cl      1  UNL1       -0.0824
     15 C         142.1934  144.7158  162.5235 C.ar    1  UNL1        0.0512
     16 C         142.9737  143.6345  163.2106 C.ar    1  UNL1        0.1741
     17 C         142.4360  142.9991  164.4585 C.ar    1  UNL1        0.1826
     18 C         141.1181  143.4448  165.0192 C.ar    1  UNL1        0.0927
     19 CL        140.5805  142.8093  166.2670 Cl      1  UNL1       -0.0792
     20 O         143.2162  141.9178  165.1456 O.3     1  UNL1       -0.4675
     21 C         144.5341  141.4721  164.5849 C.3     1  UNL1        0.2527
     22 C         145.0718  142.1075  163.3371 C.3     1  UNL1        0.2526
     23 O         144.2916  143.1888  162.6499 O.3     1  UNL1       -0.4683
     24 C         137.9434  139.3989  161.0156 C.3     1  UNL1        0.0604
     25 O         141.9752  138.6780  164.0990 O.2     1  UNL1       -0.2670
     26 C         142.3014  138.4623  162.6509 C.ar    1  UNL1        0.2611
     27 C         143.6931  138.0772  162.2449 C.ar    1  UNL1        0.0623
     28 C         144.0193  137.8615  160.7968 C.ar    1  UNL1        0.0254
     29 C         142.9539  138.0310  159.7546 C.ar    1  UNL1        0.0972
     30 N         142.9927  137.8823  158.2557 N.ar    1  UNL1       -0.2400
     31 C         141.8293  138.0871  157.3312 C.ar    1  UNL1        0.1282
     32 C         140.4899  138.4729  157.8853 C.ar    1  UNL1        0.1588
     33 F         139.3266  138.6777  156.9608 F       1  UNL1       -0.2027
     34 C         140.3138  138.6539  159.3639 C.ar    1  UNL1        0.0500
     35 C         141.5622  138.4161  160.1606 C.ar    1  UNL1        0.0806
     36 N         141.2360  138.6318  161.6088 N.ar    1  UNL1       -0.2915
     37 C         139.7859  139.0029  161.7069 C.3     1  UNL1        0.1402
     38 C         139.2159  139.0166  160.3195 C.3     1  UNL1        0.1335
     39 O         138.3800  139.1102  159.0776 O.3     1  UNL1       -0.3806
     40 H         137.4732  139.3588  159.3162 H       1  UNL1        0.2108
@<TRIPOS>BOND
     1    25    26    2
     2    26    27   ar
     3    27    28   ar
     4    28    29   ar
     5    29    30   ar
     6    30    31   ar
     7    31    32   ar
     8    32    33    1
     9    32    34   ar
    10    34    35   ar
    11    35    36   ar
    12    36    37    1
    13    37    38    1
    14    38    39    1
    15    38    24    1
    16    24     1    1
    17     1     2    1
    18     2     3    1
    19     3     4    1
    20     4     9    1
    21     9    11    1
    22    11    12    1
    23    12    13   ar
    24    13    14    1
    25    13    15   ar
    26    15    16   ar
    27    16    17   ar
    28    17    18   ar
    29    18    19    1
    30    17    20    1
    31    20    21    1
    32    21    22    1
    33    22    23    1
    34     4     5    1
    35     5     6    1
    36     4     7    1
    37     7     8    1
    38    36    26   ar
    39     6     1    1
    40    35    29   ar
    41     8     1    1
    42    38    34    1
    43    18    12   ar
    44    23    16    1
    45    39    40    1
    46     9    10    1
@<TRIPOS>MOLECULE
*****
 40 46 0 0 0
SMALL
GASTEIGER

@<TRIPOS>ATOM
      1 C         138.7449  138.9660  164.1711 C.3     1  UNL1        0.0955
      2 C         138.0853  140.2750  163.8523 C.3     1  UNL1        0.0287
      3 C         137.5497  140.5290  162.4744 C.3     1  UNL1        0.0193
      4 C         137.6737  139.4742  161.4153 C.3     1  UNL1        0.0700
      5 C         138.3333  138.1652  161.7340 C.3     1  UNL1        0.0193
      6 C         138.8689  137.9111  163.1119 C.3     1  UNL1        0.0287
      7 C         137.9824  139.2890  162.1559 C.3     1  UNL1        0.1562
      8 O         138.4667  139.0593  163.4018 O.3     1  UNL1       -0.3571
      9 N         137.1381  139.7282  160.0374 N.3     1  UNL1       -0.2938
     10 H         136.3039  140.3047  160.1474 H       1  UNL1        0.1235
     11 C         137.9987  140.4033  159.0109 C.3     1  UNL1        0.0974
     12 C         139.4739  140.5432  159.2439 C.ar    1  UNL1        0.0180
     13 C         140.4059  139.4424  158.8322 C.ar    1  UNL1        0.0590
     14 CL        139.8628  138.2015  158.1876 Cl      1  UNL1       -0.0824
     15 C         141.8811  139.5823  159.0651 C.ar    1  UNL1        0.0512
     16 C         142.4243  140.8230  159.7096 C.ar    1  UNL1        0.1741
     17 C         141.4923  141.9239  160.1213 C.ar    1  UNL1        0.1826
     18 C         140.0171  141.7840  159.8884 C.ar    1  UNL1        0.0927
     19 CL        139.0851  142.8848  160.3001 Cl      1  UNL1       -0.0792
     20 O         142.0354  143.1646  160.7658 O.3     1  UNL1       -0.4675
     21 C         143.5106  143.3045  160.9987 C.3     1  UNL1        0.2527
     22 C         144.4426  142.2038  160.5871 C.3     1  UNL1        0.2526
     23 O         143.8995  140.9629  159.9425 O.3     1  UNL1       -0.4683
     24 C         139.2805  138.7119  165.5490 C.3     1  UNL1        0.0604
     25 O         138.0934  140.0749  170.3464 O.2     1  UNL1       -0.2670
     26 C         139.3339  140.7478  169.8380 C.ar    1  UNL1        0.2611
     27 C         140.0817  141.7056  170.7174 C.ar    1  UNL1        0.0623
     28 C         141.3222  142.3785  170.2090 C.ar    1  UNL1        0.0254
     29 C         141.8148  142.0936  168.8212 C.ar    1  UNL1        0.0972
     30 N         143.0069  142.6133  168.0600 N.ar    1  UNL1       -0.2400
     31 C         143.3768  142.2316  166.6574 C.ar    1  UNL1        0.1282
     32 C         142.5285  141.2556  165.8972 C.ar    1  UNL1        0.1588
     33 F         142.8984  140.8739  164.4946 F       1  UNL1       -0.2027
     34 C         141.3102  140.6614  166.5397 C.ar    1  UNL1        0.0500
     35 C         141.0670  141.1358  167.9418 C.ar    1  UNL1        0.0806
     36 N         139.8265  140.4630  168.4502 N.ar    1  UNL1       -0.2915
     37 C         139.3031  139.5727  167.3623 C.3     1  UNL1        0.1402
     38 C         140.2201  139.6953  166.1815 C.3     1  UNL1        0.1335
     39 O         140.9406  139.6124  164.8686 O.3     1  UNL1       -0.3806
     40 H         140.4738  138.9970  164.2819 H       1  UNL1        0.2108
@<TRIPOS>BOND
     1    25    26    2
     2    26    27   ar
     3    27    28   ar
     4    28    29   ar
     5    29    30   ar
     6    30    31   ar
     7    31    32   ar
     8    32    33    1
     9    32    34   ar
    10    34    35   ar
    11    35    36   ar
    12    36    37    1
    13    37    38    1
    14    38    39    1
    15    38    24    1
    16    24     1    1
    17     1     2    1
    18     2     3    1
    19     3     4    1
    20     4     9    1
    21     9    11    1
    22    11    12    1
    23    12    13   ar
    24    13    14    1
    25    13    15   ar
    26    15    16   ar
    27    16    17   ar
    28    17    18   ar
    29    18    19    1
    30    17    20    1
    31    20    21    1
    32    21    22    1
    33    22    23    1
    34     4     5    1
    35     5     6    1
    36     4     7    1
    37     7     8    1
    38    36    26   ar
    39     6     1    1
    40    35    29   ar
    41     8     1    1
    42    38    34    1
    43    18    12   ar
    44    23    16    1
    45    39    40    1
    46     9    10    1
@<TRIPOS>MOLECULE
*****
 40 46 0 0 0
SMALL
GASTEIGER

@<TRIPOS>ATOM
      1 C         137.6344  140.9191  161.9121 C.3     1  UNL1        0.0955
      2 C         137.5773  140.7227  163.3982 C.3     1  UNL1        0.0287
      3 C         137.7259  141.8994  164.3165 C.3     1  UNL1        0.0193
      4 C         137.9315  143.2725  163.7488 C.3     1  UNL1        0.0700
      5 C         137.9887  143.4689  162.2629 C.3     1  UNL1        0.0193
      6 C         137.8401  142.2922  161.3445 C.3     1  UNL1        0.0287
      7 C         137.8552  142.6582  163.2057 C.3     1  UNL1        0.1562
      8 O         137.7209  141.5942  162.3754 O.3     1  UNL1       -0.3571
      9 N         138.0801  144.4492  164.6671 N.3     1  UNL1       -0.2938
     10 H         137.4720  144.2766  165.4676 H       1  UNL1        0.1235
     11 C         139.4293  144.8055  165.2172 C.3     1  UNL1        0.0974
     12 C         140.6382  144.0177  164.8075 C.ar    1  UNL1        0.0180
     13 C         141.0931  142.8553  165.6393 C.ar    1  UNL1        0.0590
     14 CL        140.3391  142.4807  166.8809 Cl      1  UNL1       -0.0824
     15 C         142.3020  142.0674  165.2297 C.ar    1  UNL1        0.0512
     16 C         143.0560  142.4419  163.9883 C.ar    1  UNL1        0.1741
     17 C         142.6012  143.6042  163.1564 C.ar    1  UNL1        0.1826
     18 C         141.3923  144.3921  163.5661 C.ar    1  UNL1        0.0927
     19 CL        140.9374  145.5545  162.7342 Cl      1  UNL1       -0.0792
     20 O         143.3551  143.9788  161.9150 O.3     1  UNL1       -0.4675
     21 C         144.5640  143.1909  161.5054 C.3     1  UNL1        0.2527
     22 C         145.0189  142.0285  162.3372 C.3     1  UNL1        0.2526
     23 O         144.2649  141.6540  163.5787 O.3     1  UNL1       -0.4683
     24 C         137.4859  139.7424  160.9938 C.3     1  UNL1        0.0604
     25 O         141.8569  137.6275  162.6382 O.2     1  UNL1       -0.2670
     26 C         141.8492  137.8775  161.1592 C.ar    1  UNL1        0.2611
     27 C         143.0450  137.5123  160.3305 C.ar    1  UNL1        0.0623
     28 C         143.0373  137.7624  158.8516 C.ar    1  UNL1        0.0254
     29 C         141.8338  138.3776  158.2012 C.ar    1  UNL1        0.0972
     30 N         141.5505  138.7365  156.7655 N.ar    1  UNL1       -0.2400
     31 C         140.2818  139.3554  156.2579 C.ar    1  UNL1        0.1282
     32 C         139.1657  139.6664  157.2106 C.ar    1  UNL1        0.1588
     33 F         137.8971  140.2852  156.7030 F       1  UNL1       -0.2027
     34 C         139.3182  139.3585  158.6707 C.ar    1  UNL1        0.0500
     35 C         140.6380  138.7428  159.0298 C.ar    1  UNL1        0.0806
     36 N         140.6457  138.4928  160.5088 N.ar    1  UNL1       -0.2915
     37 C         139.3306  138.9539  161.0637 C.3     1  UNL1        0.1402
     38 C         138.5101  139.4890  159.9277 C.3     1  UNL1        0.1335
     39 O         137.4756  140.0770  159.0146 O.3     1  UNL1       -0.3806
     40 H         136.6909  140.3214  159.5298 H       1  UNL1        0.2108
@<TRIPOS>BOND
     1    25    26    2
     2    26    27   ar
     3    27    28   ar
     4    28    29   ar
     5    29    30   ar
     6    30    31   ar
     7    31    32   ar
     8    32    33    1
     9    32    34   ar
    10    34    35   ar
    11    35    36   ar
    12    36    37    1
    13    37    38    1
    14    38    39    1
    15    38    24    1
    16    24     1    1
    17     1     2    1
    18     2     3    1
    19     3     4    1
    20     4     9    1
    21     9    11    1
    22    11    12    1
    23    12    13   ar
    24    13    14    1
    25    13    15   ar
    26    15    16   ar
    27    16    17   ar
    28    17    18   ar
    29    18    19    1
    30    17    20    1
    31    20    21    1
    32    21    22    1
    33    22    23    1
    34     4     5    1
    35     5     6    1
    36     4     7    1
    37     7     8    1
    38    36    26   ar
    39     6     1    1
    40    35    29   ar
    41     8     1    1
    42    38    34    1
    43    18    12   ar
    44    23    16    1
    45    39    40    1
    46     9    10    1
@<TRIPOS>MOLECULE
*****
 40 46 0 0 0
SMALL
GASTEIGER

@<TRIPOS>ATOM
      1 C         141.9232  143.9894  164.6046 C.3     1  UNL1        0.0955
      2 C         140.4742  143.8155  164.9514 C.3     1  UNL1        0.0287
      3 C         140.0658  142.8062  165.9831 C.3     1  UNL1        0.0193
      4 C         141.1064  141.9707  166.6680 C.3     1  UNL1        0.0700
      5 C         142.5553  142.1446  166.3213 C.3     1  UNL1        0.0193
      6 C         142.9638  143.1540  165.2896 C.3     1  UNL1        0.0287
      7 C         141.3785  142.5109  166.1093 C.3     1  UNL1        0.1562
      8 O         141.7478  143.4236  165.1764 O.3     1  UNL1       -0.3571
      9 N         140.6980  140.9613  167.6998 N.3     1  UNL1       -0.2938
     10 H         139.7778  141.2423  168.0385 H       1  UNL1        0.1235
     11 C         140.5996  139.5106  167.3317 C.3     1  UNL1        0.0974
     12 C         140.6000  139.1011  165.8887 C.ar    1  UNL1        0.0180
     13 C         141.8505  138.5576  165.2636 C.ar    1  UNL1        0.0590
     14 CL        143.1008  138.4235  166.0816 Cl      1  UNL1       -0.0824
     15 C         141.8510  138.1482  163.8206 C.ar    1  UNL1        0.0512
     16 C         140.6008  138.2823  163.0026 C.ar    1  UNL1        0.1741
     17 C         139.3503  138.8258  163.6276 C.ar    1  UNL1        0.1826
     18 C         139.3498  139.2352  165.0706 C.ar    1  UNL1        0.0927
     19 CL        138.0993  139.7787  165.6957 Cl      1  UNL1       -0.0792
     20 O         138.1001  138.9599  162.8097 O.3     1  UNL1       -0.4675
     21 C         138.1005  138.5505  161.3666 C.3     1  UNL1        0.2527
     22 C         139.3510  138.0070  160.7416 C.3     1  UNL1        0.2526
     23 O         140.6013  137.8728  161.5595 O.3     1  UNL1       -0.4683
     24 C         142.3316  144.9988  163.5729 C.3     1  UNL1        0.0604
     25 O         145.2250  141.4645  161.2448 O.2     1  UNL1       -0.2670
     26 C         144.2027  142.0757  160.3328 C.ar    1  UNL1        0.2611
     27 C         144.1133  141.6327  158.9026 C.ar    1  UNL1        0.0623
     28 C         143.0911  142.2439  157.9907 C.ar    1  UNL1        0.0254
     29 C         142.1583  143.2979  158.5090 C.ar    1  UNL1        0.0972
     30 N         141.0549  144.0717  157.8351 N.ar    1  UNL1       -0.2400
     31 C         140.1943  145.1099  158.4920 C.ar    1  UNL1        0.1282
     32 C         140.4012  145.4499  159.9382 C.ar    1  UNL1        0.1588
     33 F         139.5406  146.4881  160.5952 F       1  UNL1       -0.2027
     34 C         141.4687  144.7518  160.7276 C.ar    1  UNL1        0.0500
     35 C         142.2477  143.7409  159.9393 C.ar    1  UNL1        0.0806
     36 N         143.2699  143.1297  160.8512 N.ar    1  UNL1       -0.2915
     37 C         143.1227  143.7629  162.2030 C.3     1  UNL1        0.1402
     38 C         142.0095  144.7654  162.1266 C.3     1  UNL1        0.1335
     39 O         140.9636  145.8166  162.3525 O.3     1  UNL1       -0.3806
     40 H         141.0027  146.1190  163.2734 H       1  UNL1        0.2108
@<TRIPOS>BOND
     1    25    26    2
     2    26    27   ar
     3    27    28   ar
     4    28    29   ar
     5    29    30   ar
     6    30    31   ar
     7    31    32   ar
     8    32    33    1
     9    32    34   ar
    10    34    35   ar
    11    35    36   ar
    12    36    37    1
    13    37    38    1
    14    38    39    1
    15    38    24    1
    16    24     1    1
    17     1     2    1
    18     2     3    1
    19     3     4    1
    20     4     9    1
    21     9    11    1
    22    11    12    1
    23    12    13   ar
    24    13    14    1
    25    13    15   ar
    26    15    16   ar
    27    16    17   ar
    28    17    18   ar
    29    18    19    1
    30    17    20    1
    31    20    21    1
    32    21    22    1
    33    22    23    1
    34     4     5    1
    35     5     6    1
    36     4     7    1
    37     7     8    1
    38    36    26   ar
    39     6     1    1
    40    35    29   ar
    41     8     1    1
    42    38    34    1
    43    18    12   ar
    44    23    16    1
    45    39    40    1
    46     9    10    1
@<TRIPOS>MOLECULE
*****
 40 46 0 0 0
SMALL
GASTEIGER

@<TRIPOS>ATOM
      1 C         143.3044  142.9029  164.7893 C.3     1  UNL1        0.0955
      2 C         143.7799  142.4250  163.4492 C.3     1  UNL1        0.0287
      3 C         143.3485  143.1383  162.2022 C.3     1  UNL1        0.0193
      4 C         142.4415  144.3294  162.2952 C.3     1  UNL1        0.0700
      5 C         141.9660  144.8072  163.6351 C.3     1  UNL1        0.0193
      6 C         142.3974  144.0940  164.8822 C.3     1  UNL1        0.0287
      7 C         142.6511  143.9710  163.0063 C.3     1  UNL1        0.1562
      8 O         143.0412  143.3261  164.1339 O.3     1  UNL1       -0.3571
      9 N         142.0101  145.0427  161.0481 N.3     1  UNL1       -0.2938
     10 H         142.7320  144.8740  160.3476 H       1  UNL1        0.1235
     11 C         140.6970  144.7044  160.4069 C.3     1  UNL1        0.0974
     12 C         139.9225  143.5064  160.8706 C.ar    1  UNL1        0.0180
     13 C         138.8558  143.6608  161.9139 C.ar    1  UNL1        0.0590
     14 CL        138.5637  145.0132  162.4935 Cl      1  UNL1       -0.0824
     15 C         138.0813  142.4629  162.3776 C.ar    1  UNL1        0.0512
     16 C         138.3733  141.1106  161.7981 C.ar    1  UNL1        0.1741
     17 C         139.4399  140.9561  160.7548 C.ar    1  UNL1        0.1826
     18 C         140.2145  142.1540  160.2911 C.ar    1  UNL1        0.0927
     19 CL        141.2811  141.9996  159.2478 Cl      1  UNL1       -0.0792
     20 O         139.7321  139.6039  160.1753 O.3     1  UNL1       -0.4675
     21 C         138.9575  138.4060  160.6391 C.3     1  UNL1        0.2527
     22 C         137.8909  138.5603  161.6823 C.3     1  UNL1        0.2526
     23 O         137.5987  139.9127  162.2619 O.3     1  UNL1       -0.4683
     24 C         143.7358  142.1895  166.0363 C.3     1  UNL1        0.0604
     25 O         139.8290  139.1282  164.7527 O.2     1  UNL1       -0.2670
     26 C         139.7596  139.5984  166.1754 C.ar    1  UNL1        0.2611
     27 C         138.6248  139.1635  167.0545 C.ar    1  UNL1        0.0623
     28 C         138.5554  139.6337  168.4772 C.ar    1  UNL1        0.0254
     29 C         139.6208  140.5388  169.0208 C.ar    1  UNL1        0.0972
     30 N         139.8054  141.1557  170.3831 N.ar    1  UNL1       -0.2400
     31 C         140.9377  142.0538  170.7848 C.ar    1  UNL1        0.1282
     32 C         142.0062  142.4033  169.7918 C.ar    1  UNL1        0.1588
     33 F         143.1385  143.3013  170.1935 F       1  UNL1       -0.2027
     34 C         141.9424  141.8548  168.3971 C.ar    1  UNL1        0.0500
     35 C         140.7557  140.9737  168.1417 C.ar    1  UNL1        0.0806
     36 N         140.8251  140.5035  166.7190 N.ar    1  UNL1       -0.2915
     37 C         142.0547  141.0941  166.0951 C.3     1  UNL1        0.1402
     38 C         142.7453  141.9292  167.1323 C.3     1  UNL1        0.1335
     39 O         143.6429  142.8188  167.9403 O.3     1  UNL1       -0.3806
     40 H         144.3861  143.1131  167.3908 H       1  UNL1        0.2108
@<TRIPOS>BOND
     1    25    26    2
     2    26    27   ar
     3    27    28   ar
     4    28    29   ar
     5    29    30   ar
     6    30    31   ar
     7    31    32   ar
     8    32    33    1
     9    32    34   ar
    10    34    35   ar
    11    35    36   ar
    12    36    37    1
    13    37    38    1
    14    38    39    1
    15    38    24    1
    16    24     1    1
    17     1     2    1
    18     2     3    1
    19     3     4    1
    20     4     9    1
    21     9    11    1
    22    11    12    1
    23    12    13   ar
    24    13    14    1
    25    13    15   ar
    26    15    16   ar
    27    16    17   ar
    28    17    18   ar
    29    18    19    1
    30    17    20    1
    31    20    21    1
    32    21    22    1
    33    22    23    1
    34     4     5    1
    35     5     6    1
    36     4     7    1
    37     7     8    1
    38    36    26   ar
    39     6     1    1
    40    35    29   ar
    41     8     1    1
    42    38    34    1
    43    18    12   ar
    44    23    16    1
    45    39    40    1
    46     9    10    1
@<TRIPOS>MOLECULE
*****
 40 46 0 0 0
SMALL
GASTEIGER

@<TRIPOS>ATOM
      1 C         137.8834  140.7556  161.8471 C.3     1  UNL1        0.0955
      2 C         138.0185  142.1491  161.3085 C.3     1  UNL1        0.0287
      3 C         137.9927  143.3208  162.2447 C.3     1  UNL1        0.0193
      4 C         137.8318  143.0991  163.7194 C.3     1  UNL1        0.0700
      5 C         137.6968  141.7056  164.2580 C.3     1  UNL1        0.0193
      6 C         137.7226  140.5339  163.3218 C.3     1  UNL1        0.0287
      7 C         137.8402  142.4257  163.2456 C.3     1  UNL1        0.1562
      8 O         137.8635  141.3662  162.3991 O.3     1  UNL1       -0.3571
      9 N         137.8060  144.2708  164.6557 N.3     1  UNL1       -0.2938
     10 H         137.2349  143.9965  165.4550 H       1  UNL1        0.1235
     11 C         139.0889  144.8181  165.2075 C.3     1  UNL1        0.0974
     12 C         140.3869  144.1251  164.9160 C.ar    1  UNL1        0.0180
     13 C         140.8860  143.0500  165.8353 C.ar    1  UNL1        0.0590
     14 CL        140.0872  142.6679  167.0461 Cl      1  UNL1       -0.0824
     15 C         142.1840  142.3569  165.5439 C.ar    1  UNL1        0.0512
     16 C         142.9829  142.7389  164.3332 C.ar    1  UNL1        0.1741
     17 C         142.4838  143.8140  163.4139 C.ar    1  UNL1        0.1826
     18 C         141.1858  144.5071  163.7053 C.ar    1  UNL1        0.0927
     19 CL        140.6867  145.5821  162.7860 Cl      1  UNL1       -0.0792
     20 O         143.2826  144.1961  162.2031 O.3     1  UNL1       -0.4675
     21 C         144.5805  143.5030  161.9117 C.3     1  UNL1        0.2527
     22 C         145.0797  142.4280  162.8309 C.3     1  UNL1        0.2526
     23 O         144.2809  142.0459  164.0417 O.3     1  UNL1       -0.4683
     24 C         137.9092  139.5839  160.9109 C.3     1  UNL1        0.0604
     25 O         138.1971  140.3486  155.8498 O.2     1  UNL1       -0.2670
     26 C         139.4409  139.7333  156.4192 C.ar    1  UNL1        0.2611
     27 C         140.5975  139.4108  155.5201 C.ar    1  UNL1        0.0623
     28 C         141.8413  138.7955  156.0896 C.ar    1  UNL1        0.0254
     29 C         141.9286  138.5027  157.5581 C.ar    1  UNL1        0.0972
     30 N         143.0304  137.9003  158.3909 N.ar    1  UNL1       -0.2400
     31 C         142.9724  137.6658  159.8713 C.ar    1  UNL1        0.1282
     32 C         141.7419  138.0414  160.6425 C.ar    1  UNL1        0.1588
     33 F         141.6839  137.8069  162.1229 F       1  UNL1       -0.2027
     34 C         140.5694  138.6515  159.9332 C.ar    1  UNL1        0.0500
     35 C         140.7721  138.8253  158.4572 C.ar    1  UNL1        0.0806
     36 N         139.5283  139.4406  157.8877 N.ar    1  UNL1       -0.2915
     37 C         138.5568  139.6471  159.0119 C.3     1  UNL1        0.1402
     38 C         139.2003  139.1594  160.2761 C.3     1  UNL1        0.1335
     39 O         139.5738  138.7605  161.6729 O.3     1  UNL1       -0.3806
     40 H         138.8389  138.9603  162.2737 H       1  UNL1        0.2108
@<TRIPOS>BOND
     1    25    26    2
     2    26    27   ar
     3    27    28   ar
     4    28    29   ar
     5    29    30   ar
     6    30    31   ar
     7    31    32   ar
     8    32    33    1
     9    32    34   ar
    10    34    35   ar
    11    35    36   ar
    12    36    37    1
    13    37    38    1
    14    38    39    1
    15    38    24    1
    16    24     1    1
    17     1     2    1
    18     2     3    1
    19     3     4    1
    20     4     9    1
    21     9    11    1
    22    11    12    1
    23    12    13   ar
    24    13    14    1
    25    13    15   ar
    26    15    16   ar
    27    16    17   ar
    28    17    18   ar
    29    18    19    1
    30    17    20    1
    31    20    21    1
    32    21    22    1
    33    22    23    1
    34     4     5    1
    35     5     6    1
    36     4     7    1
    37     7     8    1
    38    36    26   ar
    39     6     1    1
    40    35    29   ar
    41     8     1    1
    42    38    34    1
    43    18    12   ar
    44    23    16    1
    45    39    40    1
    46     9    10    1
@<TRIPOS>MOLECULE
*****
 40 46 0 0 0
SMALL
GASTEIGER

@<TRIPOS>ATOM
      1 C         143.7914  139.1829  161.9446 C.3     1  UNL1        0.0955
      2 C         144.1943  140.4817  161.3112 C.3     1  UNL1        0.0287
      3 C         144.8510  141.5473  162.1378 C.3     1  UNL1        0.0193
      4 C         145.1047  141.3143  163.5977 C.3     1  UNL1        0.0700
      5 C         144.7018  140.0156  164.2310 C.3     1  UNL1        0.0193
      6 C         144.0451  138.9499  163.4045 C.3     1  UNL1        0.0287
      7 C         144.7420  140.7006  163.1855 C.3     1  UNL1        0.1562
      8 O         144.1483  139.7371  162.4381 O.3     1  UNL1       -0.3571
      9 N         145.7614  142.3799  164.4243 N.3     1  UNL1       -0.2938
     10 H         146.2874  142.9702  163.7798 H       1  UNL1        0.1235
     11 C         144.9255  143.2967  165.2672 C.3     1  UNL1        0.0974
     12 C         143.4544  143.4247  165.0038 C.ar    1  UNL1        0.0180
     13 C         142.4749  142.6337  165.8191 C.ar    1  UNL1        0.0590
     14 CL        142.9664  141.7147  166.8980 Cl      1  UNL1       -0.0824
     15 C         141.0037  142.7617  165.5557 C.ar    1  UNL1        0.0512
     16 C         140.5121  143.6806  164.4770 C.ar    1  UNL1        0.1741
     17 C         141.4916  144.4716  163.6616 C.ar    1  UNL1        0.1826
     18 C         142.9627  144.3437  163.9250 C.ar    1  UNL1        0.0927
     19 CL        143.9422  145.1347  163.1096 Cl      1  UNL1       -0.0792
     20 O         141.0000  145.3906  162.5828 O.3     1  UNL1       -0.4675
     21 C         139.5289  145.5185  162.3194 C.3     1  UNL1        0.2527
     22 C         138.5493  144.7275  163.1347 C.3     1  UNL1        0.2526
     23 O         139.0409  143.8085  164.2136 O.3     1  UNL1       -0.4683
     24 C         143.1347  138.1173  161.1180 C.3     1  UNL1        0.0604
     25 O         143.9016  136.9521  156.1848 O.2     1  UNL1       -0.2670
     26 C         142.5681  137.5924  156.4332 C.ar    1  UNL1        0.2611
     27 C         141.6241  137.8265  155.2913 C.ar    1  UNL1        0.0623
     28 C         140.2906  138.4668  155.5398 C.ar    1  UNL1        0.0254
     29 C         139.9011  138.8731  156.9301 C.ar    1  UNL1        0.0972
     30 N         138.6519  139.5233  157.4658 N.ar    1  UNL1       -0.2400
     31 C         138.4019  139.8746  158.9025 C.ar    1  UNL1        0.1282
     32 C         139.4447  139.5787  159.9392 C.ar    1  UNL1        0.1588
     33 F         139.1948  139.9300  161.3759 F       1  UNL1       -0.2027
     34 C         140.7375  138.9315  159.5393 C.ar    1  UNL1        0.0500
     35 C         140.8451  138.6390  158.0720 C.ar    1  UNL1        0.0806
     36 N         142.1786  137.9987  157.8236 N.ar    1  UNL1       -0.2915
     37 C         142.8951  137.8954  159.1374 C.3     1  UNL1        0.1402
     38 C         142.0045  138.4719  160.1978 C.3     1  UNL1        0.1335
     39 O         141.3501  138.9742  161.4505 O.3     1  UNL1       -0.3806
     40 H         141.9438  138.8330  162.2044 H       1  UNL1        0.2108
@<TRIPOS>BOND
     1    25    26    2
     2    26    27   ar
     3    27    28   ar
     4    28    29   ar
     5    29    30   ar
     6    30    31   ar
     7    31    32   ar
     8    32    33    1
     9    32    34   ar
    10    34    35   ar
    11    35    36   ar
    12    36    37    1
    13    37    38    1
    14    38    39    1
    15    38    24    1
    16    24     1    1
    17     1     2    1
    18     2     3    1
    19     3     4    1
    20     4     9    1
    21     9    11    1
    22    11    12    1
    23    12    13   ar
    24    13    14    1
    25    13    15   ar
    26    15    16   ar
    27    16    17   ar
    28    17    18   ar
    29    18    19    1
    30    17    20    1
    31    20    21    1
    32    21    22    1
    33    22    23    1
    34     4     5    1
    35     5     6    1
    36     4     7    1
    37     7     8    1
    38    36    26   ar
    39     6     1    1
    40    35    29   ar
    41     8     1    1
    42    38    34    1
    43    18    12   ar
    44    23    16    1
    45    39    40    1
    46     9    10    1
