@<TRIPOS>MOLECULE
*****
 41 46 0 0 0
SMALL
GASTEIGER

@<TRIPOS>ATOM
      1 C         140.1164  141.9056  169.3513 C.ar    1  UNL1        0.0769
      2 C         140.8515  142.8132  168.4102 C.ar    1  UNL1        0.0065
      3 C         140.9255  142.4786  166.9499 C.ar    1  UNL1        0.0016
      4 C         140.2643  141.2364  166.4307 C.ar    1  UNL1        0.0191
      5 C         139.5292  140.3287  167.3718 C.ar    1  UNL1        0.0509
      6 C         139.4552  140.6633  168.8321 C.ar    1  UNL1        0.0211
      7 N         138.9796  139.1823  166.5756 N.am    1  UNL1       -0.2803
      8 C         139.3750  139.3815  165.1425 C.2     1  UNL1        0.2507
      9 O         139.0360  138.4711  163.9996 O.2     1  UNL1       -0.2698
     10 C         140.1691  140.6510  165.0529 C.2     1  UNL1        0.0682
     11 C         140.7635  141.2329  163.8047 C.2     1  UNL1        0.0527
     12 H         138.4519  138.4311  166.9313 H       1  UNL1        0.1552
     13 C         141.5366  142.5166  163.8700 C.ar    1  UNL1        0.0136
     14 C         143.0151  142.4898  164.1220 C.ar    1  UNL1        0.0012
     15 C         143.7882  143.7736  164.1873 C.ar    1  UNL1        0.0000
     16 C         143.0828  145.0842  164.0006 C.ar    1  UNL1        0.0000
     17 C         141.6044  145.1110  163.7487 C.ar    1  UNL1        0.0000
     18 C         140.8313  143.8273  163.6834 C.ar    1  UNL1        0.0012
     19 C         140.0424  142.2402  170.8117 C.2     1  UNL1        0.3414
     20 O         139.1486  143.3489  171.2827 O.2     1  UNL1       -0.2449
     21 C         142.1023  140.7519  171.3516 C.3     1  UNL1        0.2560
     22 O         140.8622  141.4661  171.8009 O.3     1  UNL1       -0.4413
     23 N         140.5847  140.5311  162.4911 N.pl3   1  UNL1       -0.3124
     24 H         139.8364  139.9037  162.3660 H       1  UNL1        0.1522
     25 C         141.5460  140.7853  161.3681 C.ar    1  UNL1        0.0495
     26 C         142.5867  139.7610  161.0252 C.ar    1  UNL1        0.0144
     27 C         143.5481  140.0152  159.9022 C.ar    1  UNL1       -0.0017
     28 C         143.4687  141.2938  159.1219 C.ar    1  UNL1       -0.0067
     29 C         142.4280  142.3181  159.4647 C.ar    1  UNL1        0.0512
     30 C         141.4667  142.0639  160.5878 C.ar    1  UNL1        0.0292
     31 N         142.5907  143.4764  158.5256 N.am    1  UNL1       -0.2569
     32 C         141.7582  144.7242  158.5120 C.2     1  UNL1        0.2542
     33 O         140.6441  144.8933  159.5020 O.2     1  UNL1       -0.2724
     34 C         143.7319  143.1678  157.6023 C.3     1  UNL1        0.1030
     35 C         144.2746  141.8189  157.9709 C.3     1  UNL1        0.0495
     36 C         142.0399  145.8028  157.5084 C.3     1  UNL1        0.2124
     37 N         141.0023  146.1679  156.4887 N.ar    1  UNL1       -0.2400
     38 C         141.1055  145.9489  155.0083 C.ar    1  UNL1        0.0973
     39 C         139.8462  146.4618  154.3749 C.ar    1  UNL1        0.0427
     40 C         138.9648  146.9979  155.4639 C.ar    1  UNL1        0.1217
     41 N         139.6792  146.8163  156.7702 N.ar    1  UNL1       -0.1672
@<TRIPOS>BOND
     1    21    22    1
     2    22    19    1
     3    19    20    2
     4    19     1    1
     5     1     2   ar
     6     2     3   ar
     7     3     4   ar
     8     4     5   ar
     9     5     6   ar
    10     5     7    1
    11     7     8   am
    12     8     9    2
    13     8    10    1
    14    10    11    2
    15    11    23    1
    16    23    25    1
    17    25    26   ar
    18    26    27   ar
    19    27    28   ar
    20    28    29   ar
    21    29    30   ar
    22    29    31    1
    23    31    32   am
    24    32    33    2
    25    32    36    1
    26    36    37    1
    27    37    38   ar
    28    38    39   ar
    29    39    40   ar
    30    40    41   ar
    31    31    34    1
    32    34    35    1
    33    11    13    1
    34    13    14   ar
    35    14    15   ar
    36    15    16   ar
    37    16    17   ar
    38    17    18   ar
    39     6     1   ar
    40    30    25   ar
    41    41    37   ar
    42    18    13   ar
    43    10     4    1
    44    35    28    1
    45     7    12    1
    46    23    24    1
@<TRIPOS>MOLECULE
*****
 41 46 0 0 0
SMALL
GASTEIGER

@<TRIPOS>ATOM
      1 C         140.9337  141.6834  169.4637 C.ar    1  UNL1        0.0769
      2 C         142.0184  141.6852  168.4277 C.ar    1  UNL1        0.0065
      3 C         141.8783  140.8441  167.1936 C.ar    1  UNL1        0.0016
      4 C         140.6535  140.0012  166.9956 C.ar    1  UNL1        0.0191
      5 C         139.5688  139.9993  168.0316 C.ar    1  UNL1        0.0509
      6 C         139.7089  140.8404  169.2656 C.ar    1  UNL1        0.0211
      7 N         138.4840  139.0740  167.5654 N.am    1  UNL1       -0.2803
      8 C         138.8984  138.5040  166.2413 C.2     1  UNL1        0.2507
      9 O         138.1103  137.5317  165.4144 O.2     1  UNL1       -0.2698
     10 C         140.2392  139.0770  165.8891 C.2     1  UNL1        0.0682
     11 C         141.0273  138.7783  164.6483 C.2     1  UNL1        0.0527
     12 H         137.6471  138.8757  168.0444 H       1  UNL1        0.1552
     13 C         142.3607  139.4302  164.4316 C.ar    1  UNL1        0.0136
     14 C         143.6126  138.7524  164.9040 C.ar    1  UNL1        0.0012
     15 C         144.9461  139.4044  164.6872 C.ar    1  UNL1        0.0000
     16 C         145.0275  140.7342  163.9980 C.ar    1  UNL1        0.0000
     17 C         143.7756  141.4121  163.5256 C.ar    1  UNL1        0.0000
     18 C         142.4422  140.7601  163.7424 C.ar    1  UNL1        0.0012
     19 C         141.0738  142.5245  170.6978 C.2     1  UNL1        0.3414
     20 O         140.3497  142.1398  171.9538 O.2     1  UNL1       -0.2449
     21 C         143.4077  143.6369  170.9536 C.3     1  UNL1        0.2560
     22 O         141.9380  143.7503  170.6758 O.3     1  UNL1       -0.4413
     23 N         140.4820  137.8277  163.6241 N.pl3   1  UNL1       -0.3124
     24 H         140.4508  136.8625  163.8156 H       1  UNL1        0.1522
     25 C         139.9842  138.3476  162.3081 C.ar    1  UNL1        0.0495
     26 C         138.5664  138.8189  162.1757 C.ar    1  UNL1        0.0144
     27 C         138.0685  139.3388  160.8597 C.ar    1  UNL1       -0.0017
     28 C         138.9886  139.3874  159.6760 C.ar    1  UNL1       -0.0067
     29 C         140.4065  138.9161  159.8084 C.ar    1  UNL1        0.0512
     30 C         140.9043  138.3962  161.1244 C.ar    1  UNL1        0.0292
     31 N         141.0765  139.0827  158.4767 N.am    1  UNL1       -0.2569
     32 C         142.5004  138.7359  158.1566 C.2     1  UNL1        0.2542
     33 O         143.3909  138.1660  159.2207 O.2     1  UNL1       -0.2724
     34 C         140.0727  139.6569  157.5214 C.3     1  UNL1        0.1030
     35 C         138.7823  139.8452  158.2626 C.3     1  UNL1        0.0495
     36 C         143.0336  138.9590  156.7725 C.3     1  UNL1        0.2124
     37 N         144.1873  139.8926  156.5546 N.ar    1  UNL1       -0.2400
     38 C         145.1417  139.8599  155.3979 C.ar    1  UNL1        0.0973
     39 C         146.1333  140.9699  155.5836 C.ar    1  UNL1        0.0427
     40 C         145.7917  141.6886  156.8552 C.ar    1  UNL1        0.1217
     41 N         144.5890  141.0228  157.4553 N.ar    1  UNL1       -0.1672
@<TRIPOS>BOND
     1    21    22    1
     2    22    19    1
     3    19    20    2
     4    19     1    1
     5     1     2   ar
     6     2     3   ar
     7     3     4   ar
     8     4     5   ar
     9     5     6   ar
    10     5     7    1
    11     7     8   am
    12     8     9    2
    13     8    10    1
    14    10    11    2
    15    11    23    1
    16    23    25    1
    17    25    26   ar
    18    26    27   ar
    19    27    28   ar
    20    28    29   ar
    21    29    30   ar
    22    29    31    1
    23    31    32   am
    24    32    33    2
    25    32    36    1
    26    36    37    1
    27    37    38   ar
    28    38    39   ar
    29    39    40   ar
    30    40    41   ar
    31    31    34    1
    32    34    35    1
    33    11    13    1
    34    13    14   ar
    35    14    15   ar
    36    15    16   ar
    37    16    17   ar
    38    17    18   ar
    39     6     1   ar
    40    30    25   ar
    41    41    37   ar
    42    18    13   ar
    43    10     4    1
    44    35    28    1
    45     7    12    1
    46    23    24    1
@<TRIPOS>MOLECULE
*****
 41 46 0 0 0
SMALL
GASTEIGER

@<TRIPOS>ATOM
      1 C         141.0368  141.7074  169.4634 C.ar    1  UNL1        0.0769
      2 C         142.0997  141.7153  168.4051 C.ar    1  UNL1        0.0065
      3 C         141.9315  140.8852  167.1671 C.ar    1  UNL1        0.0016
      4 C         140.7004  140.0474  166.9873 C.ar    1  UNL1        0.0191
      5 C         139.6375  140.0395  168.0457 C.ar    1  UNL1        0.0509
      6 C         139.8057  140.8695  169.2837 C.ar    1  UNL1        0.0211
      7 N         138.5406  139.1212  167.5943 N.am    1  UNL1       -0.2803
      8 C         138.9257  138.5616  166.2569 C.2     1  UNL1        0.2507
      9 O         138.1178  137.5986  165.4383 O.2     1  UNL1       -0.2698
     10 C         140.2605  139.1339  165.8818 C.2     1  UNL1        0.0682
     11 C         141.0218  138.8438  164.6224 C.2     1  UNL1        0.0527
     12 H         137.7133  138.9210  168.0889 H       1  UNL1        0.1552
     13 C         142.3523  139.4940  164.3835 C.ar    1  UNL1        0.0136
     14 C         143.6117  138.8090  164.8245 C.ar    1  UNL1        0.0012
     15 C         144.9423  139.4593  164.5856 C.ar    1  UNL1        0.0000
     16 C         145.0132  140.7945  163.9058 C.ar    1  UNL1        0.0000
     17 C         143.7538  141.4794  163.4648 C.ar    1  UNL1        0.0000
     18 C         142.4233  140.8292  163.7036 C.ar    1  UNL1        0.0012
     19 C         141.2049  142.5374  170.7015 C.2     1  UNL1        0.3414
     20 O         140.5364  142.1232  171.9787 O.2     1  UNL1       -0.2449
     21 C         143.5028  143.7138  170.9943 C.3     1  UNL1        0.2560
     22 O         142.0416  143.7818  170.6623 O.3     1  UNL1       -0.4413
     23 N         140.4526  137.9036  163.6016 N.pl3   1  UNL1       -0.3124
     24 H         140.4028  136.9394  163.7942 H       1  UNL1        0.1522
     25 C         139.9591  138.4323  162.2875 C.ar    1  UNL1        0.0495
     26 C         138.6371  139.1369  162.2113 C.ar    1  UNL1        0.0144
     27 C         138.1437  139.6657  160.8972 C.ar    1  UNL1       -0.0017
     28 C         138.9723  139.4899  159.6592 C.ar    1  UNL1       -0.0067
     29 C         140.2943  138.7853  159.7354 C.ar    1  UNL1        0.0512
     30 C         140.7877  138.2565  161.0496 C.ar    1  UNL1        0.0292
     31 N         140.8868  138.7613  158.3576 N.am    1  UNL1       -0.2569
     32 C         142.2040  138.1542  157.9748 C.2     1  UNL1        0.2542
     33 O         143.0570  137.4942  159.0173 O.2     1  UNL1       -0.2724
     34 C         139.9311  139.4511  157.4300 C.3     1  UNL1        0.1030
     35 C         138.7478  139.9014  158.2344 C.3     1  UNL1        0.0495
     36 C         142.6682  138.2070  156.5494 C.3     1  UNL1        0.2124
     37 N         142.5373  136.9969  155.6727 N.ar    1  UNL1       -0.2400
     38 C         143.5725  135.9276  155.4856 C.ar    1  UNL1        0.0973
     39 C         143.0233  134.9135  154.5264 C.ar    1  UNL1        0.0427
     40 C         141.6487  135.3561  154.1208 C.ar    1  UNL1        0.1217
     41 N         141.3483  136.6437  154.8292 N.ar    1  UNL1       -0.1672
@<TRIPOS>BOND
     1    21    22    1
     2    22    19    1
     3    19    20    2
     4    19     1    1
     5     1     2   ar
     6     2     3   ar
     7     3     4   ar
     8     4     5   ar
     9     5     6   ar
    10     5     7    1
    11     7     8   am
    12     8     9    2
    13     8    10    1
    14    10    11    2
    15    11    23    1
    16    23    25    1
    17    25    26   ar
    18    26    27   ar
    19    27    28   ar
    20    28    29   ar
    21    29    30   ar
    22    29    31    1
    23    31    32   am
    24    32    33    2
    25    32    36    1
    26    36    37    1
    27    37    38   ar
    28    38    39   ar
    29    39    40   ar
    30    40    41   ar
    31    31    34    1
    32    34    35    1
    33    11    13    1
    34    13    14   ar
    35    14    15   ar
    36    15    16   ar
    37    16    17   ar
    38    17    18   ar
    39     6     1   ar
    40    30    25   ar
    41    41    37   ar
    42    18    13   ar
    43    10     4    1
    44    35    28    1
    45     7    12    1
    46    23    24    1
@<TRIPOS>MOLECULE
*****
 41 46 0 0 0
SMALL
GASTEIGER

@<TRIPOS>ATOM
      1 C         140.2310  140.3089  168.7374 C.ar    1  UNL1        0.0769
      2 C         141.5300  140.5348  168.0221 C.ar    1  UNL1        0.0065
      3 C         141.6169  140.3218  166.5399 C.ar    1  UNL1        0.0016
      4 C         140.4049  139.8829  165.7729 C.ar    1  UNL1        0.0191
      5 C         139.1059  139.6570  166.4881 C.ar    1  UNL1        0.0509
      6 C         139.0190  139.8700  167.9704 C.ar    1  UNL1        0.0211
      7 N         138.0866  139.2293  165.4741 N.am    1  UNL1       -0.2803
      8 C         138.7557  139.1909  164.1321 C.2     1  UNL1        0.2507
      9 O         138.1062  138.8145  162.8334 O.2     1  UNL1       -0.2698
     10 C         140.1885  139.5948  164.3168 C.2     1  UNL1        0.0682
     11 C         141.2232  139.6934  163.2353 C.2     1  UNL1        0.0527
     12 H         137.1440  139.0120  165.6572 H       1  UNL1        0.1552
     13 C         142.6232  140.1131  163.5727 C.ar    1  UNL1        0.0136
     14 C         142.9801  141.5694  163.6147 C.ar    1  UNL1        0.0012
     15 C         144.3802  141.9890  163.9521 C.ar    1  UNL1        0.0000
     16 C         145.4233  140.9523  164.2474 C.ar    1  UNL1        0.0000
     17 C         145.0664  139.4960  164.2054 C.ar    1  UNL1        0.0000
     18 C         143.6663  139.0764  163.8680 C.ar    1  UNL1        0.0012
     19 C         140.1441  140.5218  170.2196 C.2     1  UNL1        0.3414
     20 O         139.6918  139.4047  171.1126 O.2     1  UNL1       -0.2449
     21 C         140.1955  143.1146  170.0625 C.3     1  UNL1        0.2560
     22 O         140.5094  141.8519  170.8090 O.3     1  UNL1       -0.4413
     23 N         140.8579  139.3723  161.8163 N.pl3   1  UNL1       -0.3124
     24 H         140.1544  138.7101  161.6269 H       1  UNL1        0.1522
     25 C         141.5645  140.0600  160.6860 C.ar    1  UNL1        0.0495
     26 C         142.6910  139.3702  159.9752 C.ar    1  UNL1        0.0144
     27 C         143.3975  140.0579  158.8448 C.ar    1  UNL1       -0.0017
     28 C         142.9777  141.4355  158.4251 C.ar    1  UNL1       -0.0067
     29 C         141.8512  142.1252  159.1359 C.ar    1  UNL1        0.0512
     30 C         141.1446  141.4375  160.2663 C.ar    1  UNL1        0.0292
     31 N         141.6605  143.4724  158.5045 N.am    1  UNL1       -0.2569
     32 C         140.6402  144.4969  158.9039 C.2     1  UNL1        0.2542
     33 O         139.6923  144.2117  160.0309 O.2     1  UNL1       -0.2724
     34 C         142.6691  143.6152  157.4034 C.3     1  UNL1        0.1030
     35 C         143.4832  142.3563  157.3544 C.3     1  UNL1        0.0495
     36 C         140.5679  145.8067  158.1763 C.3     1  UNL1        0.2124
     37 N         139.7396  145.9285  156.9318 N.ar    1  UNL1       -0.2400
     38 C         139.2178  144.7909  156.1050 C.ar    1  UNL1        0.0973
     39 C         138.4433  145.3686  154.9577 C.ar    1  UNL1        0.0427
     40 C         138.4866  146.8634  155.0753 C.ar    1  UNL1        0.1217
     41 N         139.2877  147.2094  156.2954 N.ar    1  UNL1       -0.1672
@<TRIPOS>BOND
     1    21    22    1
     2    22    19    1
     3    19    20    2
     4    19     1    1
     5     1     2   ar
     6     2     3   ar
     7     3     4   ar
     8     4     5   ar
     9     5     6   ar
    10     5     7    1
    11     7     8   am
    12     8     9    2
    13     8    10    1
    14    10    11    2
    15    11    23    1
    16    23    25    1
    17    25    26   ar
    18    26    27   ar
    19    27    28   ar
    20    28    29   ar
    21    29    30   ar
    22    29    31    1
    23    31    32   am
    24    32    33    2
    25    32    36    1
    26    36    37    1
    27    37    38   ar
    28    38    39   ar
    29    39    40   ar
    30    40    41   ar
    31    31    34    1
    32    34    35    1
    33    11    13    1
    34    13    14   ar
    35    14    15   ar
    36    15    16   ar
    37    16    17   ar
    38    17    18   ar
    39     6     1   ar
    40    30    25   ar
    41    41    37   ar
    42    18    13   ar
    43    10     4    1
    44    35    28    1
    45     7    12    1
    46    23    24    1
@<TRIPOS>MOLECULE
*****
 41 46 0 0 0
SMALL
GASTEIGER

@<TRIPOS>ATOM
      1 C         140.8045  141.2079  169.3447 C.ar    1  UNL1        0.0769
      2 C         141.9277  141.3349  168.3587 C.ar    1  UNL1        0.0065
      3 C         141.8526  140.6230  167.0405 C.ar    1  UNL1        0.0016
      4 C         140.6544  139.7841  166.7083 C.ar    1  UNL1        0.0191
      5 C         139.5312  139.6571  167.6944 C.ar    1  UNL1        0.0509
      6 C         139.6063  140.3689  169.0126 C.ar    1  UNL1        0.0211
      7 N         138.4849  138.7662  167.0929 N.am    1  UNL1       -0.2803
      8 C         138.9614  138.3427  165.7352 C.2     1  UNL1        0.2507
      9 O         138.2262  137.4473  164.7823 O.2     1  UNL1       -0.2698
     10 C         140.3022  138.9718  165.4975 C.2     1  UNL1        0.0682
     11 C         141.1433  138.8160  164.2653 C.2     1  UNL1        0.0527
     12 H         137.6346  138.5053  167.5152 H       1  UNL1        0.1552
     13 C         142.4699  139.5095  164.1700 C.ar    1  UNL1        0.0136
     14 C         142.5478  140.9095  163.6370 C.ar    1  UNL1        0.0012
     15 C         143.8746  141.6030  163.5417 C.ar    1  UNL1        0.0000
     16 C         145.1233  140.8965  163.9795 C.ar    1  UNL1        0.0000
     17 C         145.0453  139.4966  164.5125 C.ar    1  UNL1        0.0000
     18 C         143.7186  138.8031  164.6078 C.ar    1  UNL1        0.0012
     19 C         140.8796  141.9197  170.6629 C.2     1  UNL1        0.3414
     20 O         140.6678  141.1599  171.9387 O.2     1  UNL1       -0.2449
     21 C         140.3222  144.3433  169.9108 C.3     1  UNL1        0.2560
     22 O         141.1665  143.3914  170.7052 O.3     1  UNL1       -0.4413
     23 N         140.6577  137.9666  163.1283 N.pl3   1  UNL1       -0.3124
     24 H         140.0663  137.1995  163.3045 H       1  UNL1        0.1522
     25 C         141.0732  138.2860  161.7228 C.ar    1  UNL1        0.0495
     26 C         142.4273  137.8714  161.2284 C.ar    1  UNL1        0.0144
     27 C         142.8428  138.1907  159.8229 C.ar    1  UNL1       -0.0017
     28 C         141.9042  138.9248  158.9118 C.ar    1  UNL1       -0.0067
     29 C         140.5501  139.3395  159.4062 C.ar    1  UNL1        0.0512
     30 C         140.1346  139.0201  160.8117 C.ar    1  UNL1        0.0292
     31 N         139.8444  140.0461  158.2869 N.am    1  UNL1       -0.2569
     32 C         138.4632  140.6285  158.3438 C.2     1  UNL1        0.2542
     33 O         137.6590  140.5297  159.6062 O.2     1  UNL1       -0.2724
     34 C         140.7624  140.0681  157.1008 C.3     1  UNL1        0.1030
     35 C         142.0354  139.3751  157.4870 C.3     1  UNL1        0.0495
     36 C         137.8862  141.3096  157.1384 C.3     1  UNL1        0.2124
     37 N         136.9110  140.5823  156.2609 N.ar    1  UNL1       -0.2400
     38 C         137.2390  139.8603  154.9877 C.ar    1  UNL1        0.0973
     39 C         135.9673  139.2811  154.4425 C.ar    1  UNL1        0.0427
     40 C         134.8533  139.6452  155.3788 C.ar    1  UNL1        0.1217
     41 N         135.4366  140.4494  156.5026 N.ar    1  UNL1       -0.1672
@<TRIPOS>BOND
     1    21    22    1
     2    22    19    1
     3    19    20    2
     4    19     1    1
     5     1     2   ar
     6     2     3   ar
     7     3     4   ar
     8     4     5   ar
     9     5     6   ar
    10     5     7    1
    11     7     8   am
    12     8     9    2
    13     8    10    1
    14    10    11    2
    15    11    23    1
    16    23    25    1
    17    25    26   ar
    18    26    27   ar
    19    27    28   ar
    20    28    29   ar
    21    29    30   ar
    22    29    31    1
    23    31    32   am
    24    32    33    2
    25    32    36    1
    26    36    37    1
    27    37    38   ar
    28    38    39   ar
    29    39    40   ar
    30    40    41   ar
    31    31    34    1
    32    34    35    1
    33    11    13    1
    34    13    14   ar
    35    14    15   ar
    36    15    16   ar
    37    16    17   ar
    38    17    18   ar
    39     6     1   ar
    40    30    25   ar
    41    41    37   ar
    42    18    13   ar
    43    10     4    1
    44    35    28    1
    45     7    12    1
    46    23    24    1
@<TRIPOS>MOLECULE
*****
 41 46 0 0 0
SMALL
GASTEIGER

@<TRIPOS>ATOM
      1 C         140.8121  140.3997  169.3073 C.ar    1  UNL1        0.0769
      2 C         139.9921  141.3311  168.4647 C.ar    1  UNL1        0.0065
      3 C         140.2710  141.4560  166.9961 C.ar    1  UNL1        0.0016
      4 C         141.3700  140.6495  166.3703 C.ar    1  UNL1        0.0191
      5 C         142.1900  139.7181  167.2129 C.ar    1  UNL1        0.0509
      6 C         141.9111  139.5933  168.6814 C.ar    1  UNL1        0.0211
      7 N         143.2001  139.0560  166.3233 N.am    1  UNL1       -0.2803
      8 C         143.0043  139.5781  164.9308 C.2     1  UNL1        0.2507
      9 O         143.7999  139.1846  163.7216 O.2     1  UNL1       -0.2698
     10 C         141.8733  140.5630  164.9599 C.2     1  UNL1        0.0682
     11 C         141.3392  141.3272  163.7848 C.2     1  UNL1        0.0527
     12 H         143.8734  138.3948  166.6041 H       1  UNL1        0.1552
     13 C         140.1975  142.2826  163.9676 C.ar    1  UNL1        0.0136
     14 C         138.7841  141.7918  163.8602 C.ar    1  UNL1        0.0012
     15 C         137.6424  142.7474  164.0431 C.ar    1  UNL1        0.0000
     16 C         137.9141  144.1938  164.3333 C.ar    1  UNL1        0.0000
     17 C         139.3274  144.6846  164.4407 C.ar    1  UNL1        0.0000
     18 C         140.4691  143.7290  164.2579 C.ar    1  UNL1        0.0012
     19 C         140.5331  140.2749  170.7758 C.2     1  UNL1        0.3414
     20 O         139.4911  139.3117  171.2621 O.2     1  UNL1       -0.2449
     21 C         142.1823  142.2207  171.2700 C.3     1  UNL1        0.2560
     22 O         141.2961  141.1132  171.7581 O.3     1  UNL1       -0.4413
     23 N         141.9469  141.1359  162.4268 N.pl3   1  UNL1       -0.3124
     24 H         142.9042  140.9226  162.3415 H       1  UNL1        0.1522
     25 C         141.0960  141.2696  161.1988 C.ar    1  UNL1        0.0495
     26 C         140.2365  140.1238  160.7534 C.ar    1  UNL1        0.0144
     27 C         139.3856  140.2575  159.5254 C.ar    1  UNL1       -0.0017
     28 C         139.3942  141.5370  158.7426 C.ar    1  UNL1       -0.0067
     29 C         140.2537  142.6828  159.1880 C.ar    1  UNL1        0.0512
     30 C         141.1046  142.5491  160.4160 C.ar    1  UNL1        0.0292
     31 N         140.0569  143.8129  158.2214 N.am    1  UNL1       -0.2569
     32 C         140.7241  145.1548  158.2862 C.2     1  UNL1        0.2542
     33 O         141.6882  145.4604  159.3939 O.2     1  UNL1       -0.2724
     34 C         139.0757  143.3655  157.1788 C.3     1  UNL1        0.1030
     35 C         138.6661  141.9590  157.5009 C.3     1  UNL1        0.0495
     36 C         140.4272  146.1912  157.2432 C.3     1  UNL1        0.2124
     37 N         140.9525  146.0234  155.8483 N.ar    1  UNL1       -0.2400
     38 C         142.1423  145.2027  155.4470 C.ar    1  UNL1        0.0973
     39 C         142.3055  145.3190  153.9605 C.ar    1  UNL1        0.0427
     40 C         141.2166  146.2116  153.4431 C.ar    1  UNL1        0.1217
     41 N         140.3805  146.6469  154.6098 N.ar    1  UNL1       -0.1672
@<TRIPOS>BOND
     1    21    22    1
     2    22    19    1
     3    19    20    2
     4    19     1    1
     5     1     2   ar
     6     2     3   ar
     7     3     4   ar
     8     4     5   ar
     9     5     6   ar
    10     5     7    1
    11     7     8   am
    12     8     9    2
    13     8    10    1
    14    10    11    2
    15    11    23    1
    16    23    25    1
    17    25    26   ar
    18    26    27   ar
    19    27    28   ar
    20    28    29   ar
    21    29    30   ar
    22    29    31    1
    23    31    32   am
    24    32    33    2
    25    32    36    1
    26    36    37    1
    27    37    38   ar
    28    38    39   ar
    29    39    40   ar
    30    40    41   ar
    31    31    34    1
    32    34    35    1
    33    11    13    1
    34    13    14   ar
    35    14    15   ar
    36    15    16   ar
    37    16    17   ar
    38    17    18   ar
    39     6     1   ar
    40    30    25   ar
    41    41    37   ar
    42    18    13   ar
    43    10     4    1
    44    35    28    1
    45     7    12    1
    46    23    24    1
@<TRIPOS>MOLECULE
*****
 41 46 0 0 0
SMALL
GASTEIGER

@<TRIPOS>ATOM
      1 C         139.8719  140.0622  168.6896 C.ar    1  UNL1        0.0769
      2 C         139.1371  139.9263  167.3890 C.ar    1  UNL1        0.0065
      3 C         139.8880  139.5891  166.1350 C.ar    1  UNL1        0.0016
      4 C         141.3736  139.3877  166.1816 C.ar    1  UNL1        0.0191
      5 C         142.1084  139.5235  167.4822 C.ar    1  UNL1        0.0509
      6 C         141.3575  139.8608  168.7362 C.ar    1  UNL1        0.0211
      7 N         143.5636  139.2697  167.2212 N.am    1  UNL1       -0.2803
      8 C         143.7281  138.9770  165.7593 C.2     1  UNL1        0.2507
      9 O         145.0194  138.6659  165.0622 O.2     1  UNL1       -0.2698
     10 C         142.3746  139.0499  165.1168 C.2     1  UNL1        0.0682
     11 C         142.0748  138.8246  163.6645 C.2     1  UNL1        0.0527
     12 H         144.2842  139.2914  167.8917 H       1  UNL1        0.1552
     13 C         140.6648  138.9317  163.1643 C.ar    1  UNL1        0.0136
     14 C         140.1091  140.2673  162.7676 C.ar    1  UNL1        0.0012
     15 C         138.6989  140.3744  162.2674 C.ar    1  UNL1        0.0000
     16 C         137.8445  139.1458  162.1639 C.ar    1  UNL1        0.0000
     17 C         138.4002  137.8102  162.5606 C.ar    1  UNL1        0.0000
     18 C         139.8103  137.7032  163.0608 C.ar    1  UNL1        0.0012
     19 C         139.1210  140.3995  169.9436 C.2     1  UNL1        0.3414
     20 O         137.8664  139.6539  170.2900 O.2     1  UNL1       -0.2449
     21 C         139.9723  142.8295  170.2905 C.3     1  UNL1        0.2560
     22 O         139.6248  141.4823  170.8511 O.3     1  UNL1       -0.4413
     23 N         143.1851  138.4921  162.7122 N.pl3   1  UNL1       -0.3124
     24 H         143.7489  137.7007  162.8705 H       1  UNL1        0.1522
     25 C         143.4363  139.3654  161.5188 C.ar    1  UNL1        0.0495
     26 C         143.8666  140.7897  161.7089 C.ar    1  UNL1        0.0144
     27 C         144.1178  141.6629  160.5154 C.ar    1  UNL1       -0.0017
     28 C         143.9387  141.1119  159.1319 C.ar    1  UNL1       -0.0067
     29 C         143.5083  139.6876  158.9418 C.ar    1  UNL1        0.0512
     30 C         143.2571  138.8144  160.1352 C.ar    1  UNL1        0.0292
     31 N         143.4149  139.4244  157.4680 N.am    1  UNL1       -0.2569
     32 C         143.0184  138.1273  156.8274 C.2     1  UNL1        0.2542
     33 O         142.6708  136.9444  157.6817 O.2     1  UNL1       -0.2724
     34 C         143.7875  140.6861  156.7473 C.3     1  UNL1        0.1030
     35 C         144.1112  141.7290  157.7756 C.3     1  UNL1        0.0495
     36 C         142.9697  138.0131  155.3326 C.3     1  UNL1        0.2124
     37 N         142.4267  136.7699  154.6926 N.ar    1  UNL1       -0.2400
     38 C         141.0483  136.5998  154.1259 C.ar    1  UNL1        0.0973
     39 C         140.9365  135.2033  153.5901 C.ar    1  UNL1        0.0427
     40 C         142.2458  134.5102  153.8257 C.ar    1  UNL1        0.1217
     41 N         143.1667  135.4785  154.5071 N.ar    1  UNL1       -0.1672
@<TRIPOS>BOND
     1    21    22    1
     2    22    19    1
     3    19    20    2
     4    19     1    1
     5     1     2   ar
     6     2     3   ar
     7     3     4   ar
     8     4     5   ar
     9     5     6   ar
    10     5     7    1
    11     7     8   am
    12     8     9    2
    13     8    10    1
    14    10    11    2
    15    11    23    1
    16    23    25    1
    17    25    26   ar
    18    26    27   ar
    19    27    28   ar
    20    28    29   ar
    21    29    30   ar
    22    29    31    1
    23    31    32   am
    24    32    33    2
    25    32    36    1
    26    36    37    1
    27    37    38   ar
    28    38    39   ar
    29    39    40   ar
    30    40    41   ar
    31    31    34    1
    32    34    35    1
    33    11    13    1
    34    13    14   ar
    35    14    15   ar
    36    15    16   ar
    37    16    17   ar
    38    17    18   ar
    39     6     1   ar
    40    30    25   ar
    41    41    37   ar
    42    18    13   ar
    43    10     4    1
    44    35    28    1
    45     7    12    1
    46    23    24    1
@<TRIPOS>MOLECULE
*****
 41 46 0 0 0
SMALL
GASTEIGER

@<TRIPOS>ATOM
      1 C         141.0758  140.3359  167.5699 C.ar    1  UNL1        0.0769
      2 C         141.9497  141.2959  166.8184 C.ar    1  UNL1        0.0065
      3 C         141.4507  141.9338  165.5559 C.ar    1  UNL1        0.0016
      4 C         140.0778  141.6117  165.0448 C.ar    1  UNL1        0.0191
      5 C         139.2039  140.6518  165.7962 C.ar    1  UNL1        0.0509
      6 C         139.7029  140.0139  167.0587 C.ar    1  UNL1        0.0211
      7 N         137.9059  140.5285  165.0545 N.am    1  UNL1       -0.2803
      8 C         137.9776  141.4123  163.8447 C.2     1  UNL1        0.2507
      9 O         136.8968  141.5947  162.8206 O.2     1  UNL1       -0.2698
     10 C         139.3199  142.0818  163.8387 C.2     1  UNL1        0.0682
     11 C         139.8171  143.0511  162.8076 C.2     1  UNL1        0.0527
     12 H         137.1412  139.9662  165.3159 H       1  UNL1        0.1552
     13 C         141.1897  143.6426  162.9343 C.ar    1  UNL1        0.0136
     14 C         142.3578  142.9764  162.2696 C.ar    1  UNL1        0.0012
     15 C         143.7305  143.5680  162.3964 C.ar    1  UNL1        0.0000
     16 C         143.9350  144.8256  163.1879 C.ar    1  UNL1        0.0000
     17 C         142.7669  145.4917  163.8526 C.ar    1  UNL1        0.0000
     18 C         141.3943  144.9002  163.7258 C.ar    1  UNL1        0.0012
     19 C         141.5749  139.6980  168.8324 C.2     1  UNL1        0.3414
     20 O         142.9871  139.1990  168.9131 O.2     1  UNL1       -0.2449
     21 C         140.7128  140.5669  171.1241 C.3     1  UNL1        0.2560
     22 O         140.6617  139.5591  170.0142 O.3     1  UNL1       -0.4413
     23 N         138.9416  143.4291  161.6497 N.pl3   1  UNL1       -0.3124
     24 H         138.0275  143.7573  161.8103 H       1  UNL1        0.1522
     25 C         139.4590  143.3070  160.2470 C.ar    1  UNL1        0.0495
     26 C         140.0434  144.5034  159.5563 C.ar    1  UNL1        0.0144
     27 C         140.5608  144.3813  158.1537 C.ar    1  UNL1       -0.0017
     28 C         140.4938  143.0628  157.4417 C.ar    1  UNL1       -0.0067
     29 C         139.9095  141.8664  158.1324 C.ar    1  UNL1        0.0512
     30 C         139.3921  141.9885  159.5350 C.ar    1  UNL1        0.0292
     31 N         139.9762  140.7056  157.1847 N.am    1  UNL1       -0.2569
     32 C         139.5008  139.3106  157.4643 C.2     1  UNL1        0.2542
     33 O         138.8926  138.9780  158.7945 O.2     1  UNL1       -0.2724
     34 C         140.6018  141.1846  155.9083 C.3     1  UNL1        0.1030
     35 C         140.9217  142.6415  156.0672 C.3     1  UNL1        0.0495
     36 C         139.6337  138.2483  156.4137 C.3     1  UNL1        0.2124
     37 N         140.7832  137.2858  156.4616 N.ar    1  UNL1       -0.2400
     38 C         142.0474  137.4607  157.2496 C.ar    1  UNL1        0.0973
     39 C         142.9158  136.2624  157.0049 C.ar    1  UNL1        0.0427
     40 C         142.1882  135.3468  156.0654 C.ar    1  UNL1        0.1217
     41 N         140.8702  135.9793  155.7297 N.ar    1  UNL1       -0.1672
@<TRIPOS>BOND
     1    21    22    1
     2    22    19    1
     3    19    20    2
     4    19     1    1
     5     1     2   ar
     6     2     3   ar
     7     3     4   ar
     8     4     5   ar
     9     5     6   ar
    10     5     7    1
    11     7     8   am
    12     8     9    2
    13     8    10    1
    14    10    11    2
    15    11    23    1
    16    23    25    1
    17    25    26   ar
    18    26    27   ar
    19    27    28   ar
    20    28    29   ar
    21    29    30   ar
    22    29    31    1
    23    31    32   am
    24    32    33    2
    25    32    36    1
    26    36    37    1
    27    37    38   ar
    28    38    39   ar
    29    39    40   ar
    30    40    41   ar
    31    31    34    1
    32    34    35    1
    33    11    13    1
    34    13    14   ar
    35    14    15   ar
    36    15    16   ar
    37    16    17   ar
    38    17    18   ar
    39     6     1   ar
    40    30    25   ar
    41    41    37   ar
    42    18    13   ar
    43    10     4    1
    44    35    28    1
    45     7    12    1
    46    23    24    1
@<TRIPOS>MOLECULE
*****
 41 46 0 0 0
SMALL
GASTEIGER

@<TRIPOS>ATOM
      1 C         140.8725  141.5233  169.2636 C.ar    1  UNL1        0.0769
      2 C         142.0048  141.6387  168.2867 C.ar    1  UNL1        0.0065
      3 C         141.9474  140.9018  166.9815 C.ar    1  UNL1        0.0016
      4 C         140.7577  140.0494  166.6532 C.ar    1  UNL1        0.0191
      5 C         139.6253  139.9339  167.6301 C.ar    1  UNL1        0.0509
      6 C         139.6827  140.6709  168.9353 C.ar    1  UNL1        0.0211
      7 N         138.5905  139.0255  167.0350 N.am    1  UNL1       -0.2803
      8 C         139.0834  138.5796  165.6903 C.2     1  UNL1        0.2507
      9 O         138.3633  137.6620  164.7471 O.2     1  UNL1       -0.2698
     10 C         140.4227  139.2124  165.4543 C.2     1  UNL1        0.0682
     11 C         141.2772  139.0386  164.2338 C.2     1  UNL1        0.0527
     12 H         137.7376  138.7673  167.4535 H       1  UNL1        0.1552
     13 C         142.6005  139.7384  164.1388 C.ar    1  UNL1        0.0136
     14 C         142.6630  141.1663  163.6837 C.ar    1  UNL1        0.0012
     15 C         143.9864  141.8661  163.5888 C.ar    1  UNL1        0.0000
     16 C         145.2474  141.1379  163.9490 C.ar    1  UNL1        0.0000
     17 C         145.1849  139.7100  164.4041 C.ar    1  UNL1        0.0000
     18 C         143.8616  139.0103  164.4990 C.ar    1  UNL1        0.0012
     19 C         140.9299  142.2602  170.5689 C.2     1  UNL1        0.3414
     20 O         140.7100  141.5231  171.8566 O.2     1  UNL1       -0.2449
     21 C         140.1794  144.6969  170.0697 C.3     1  UNL1        0.2560
     22 O         141.2072  143.7342  170.5864 O.3     1  UNL1       -0.4413
     23 N         140.8083  138.1651  163.1082 N.pl3   1  UNL1       -0.3124
     24 H         140.2490  137.3771  163.2967 H       1  UNL1        0.1522
     25 C         141.1916  138.4921  161.6953 C.ar    1  UNL1        0.0495
     26 C         142.3395  137.7784  161.0452 C.ar    1  UNL1        0.0144
     27 C         142.7228  138.1054  159.6323 C.ar    1  UNL1       -0.0017
     28 C         141.9580  139.1463  158.8695 C.ar    1  UNL1       -0.0067
     29 C         140.8100  139.8600  159.5196 C.ar    1  UNL1        0.0512
     30 C         140.4268  139.5329  160.9325 C.ar    1  UNL1        0.0292
     31 N         140.2458  140.8316  158.5259 N.am    1  UNL1       -0.2569
     32 C         139.0858  141.7545  158.7560 C.2     1  UNL1        0.2542
     33 O         138.3801  141.7565  160.0796 O.2     1  UNL1       -0.2724
     34 C         141.0450  140.7184  157.2617 C.3     1  UNL1        0.1030
     35 C         142.1033  139.6767  157.4740 C.3     1  UNL1        0.0495
     36 C         138.6317  142.6754  157.6625 C.3     1  UNL1        0.2124
     37 N         139.3800  143.9473  157.3940 N.ar    1  UNL1       -0.2400
     38 C         139.5380  144.6123  156.0588 C.ar    1  UNL1        0.0973
     39 C         140.3574  145.8536  156.2531 C.ar    1  UNL1        0.0427
     40 C         140.7059  145.9557  157.7086 C.ar    1  UNL1        0.1217
     41 N         140.1019  144.7776  158.4136 N.ar    1  UNL1       -0.1672
@<TRIPOS>BOND
     1    21    22    1
     2    22    19    1
     3    19    20    2
     4    19     1    1
     5     1     2   ar
     6     2     3   ar
     7     3     4   ar
     8     4     5   ar
     9     5     6   ar
    10     5     7    1
    11     7     8   am
    12     8     9    2
    13     8    10    1
    14    10    11    2
    15    11    23    1
    16    23    25    1
    17    25    26   ar
    18    26    27   ar
    19    27    28   ar
    20    28    29   ar
    21    29    30   ar
    22    29    31    1
    23    31    32   am
    24    32    33    2
    25    32    36    1
    26    36    37    1
    27    37    38   ar
    28    38    39   ar
    29    39    40   ar
    30    40    41   ar
    31    31    34    1
    32    34    35    1
    33    11    13    1
    34    13    14   ar
    35    14    15   ar
    36    15    16   ar
    37    16    17   ar
    38    17    18   ar
    39     6     1   ar
    40    30    25   ar
    41    41    37   ar
    42    18    13   ar
    43    10     4    1
    44    35    28    1
    45     7    12    1
    46    23    24    1
