@<TRIPOS>MOLECULE
*****
 36 40 0 0 0
SMALL
GASTEIGER

@<TRIPOS>ATOM
      1 C         140.9520  139.3504  159.8482 C.ar    1  UNL1        0.1233
      2 C         141.1297  138.9275  161.2763 C.ar    1  UNL1        0.1181
      3 N         140.9204  140.1317  162.1459 N.ar    1  UNL1       -0.2224
      4 N         140.6133  141.2988  161.2551 N.ar    1  UNL1       -0.0634
      5 N         140.6328  140.8160  159.8351 N.ar    1  UNL1       -0.1287
      6 C         141.0036  140.1632  163.6432 C.3     1  UNL1        0.1941
      7 C         142.3396  140.5377  164.2131 C.3     1  UNL1        0.0960
      8 S         142.7417  140.6575  165.6532 S.3     1  UNL1       -0.1098
      9 C         141.9072  140.4324  166.8791 C.ar    1  UNL1        0.0390
     10 C         142.7006  140.6600  168.1316 C.ar    1  UNL1        0.0074
     11 C         142.0513  140.4870  169.4726 C.ar    1  UNL1        0.0006
     12 C         140.6084  140.0865  169.5611 C.ar    1  UNL1        0.0013
     13 C         139.8150  139.8589  168.3087 C.ar    1  UNL1        0.0154
     14 C         140.4644  140.0319  166.9677 C.ar    1  UNL1        0.0598
     15 N         139.4998  139.7576  165.8522 N.am    1  UNL1       -0.2483
     16 C         139.7397  139.8160  164.3727 C.2     1  UNL1        0.2529
     17 O         138.6703  139.5131  163.3654 O.2     1  UNL1       -0.2724
     18 C         138.1116  139.3741  166.2718 C.3     1  UNL1        0.2016
     19 C         137.8023  137.9502  166.6282 C.3     1  UNL1        0.4160
     20 F         137.4929  136.5264  166.9845 F       1  UNL1       -0.1682
     21 F         138.6062  137.3095  165.5358 F       1  UNL1       -0.1682
     22 F         136.9543  138.4209  167.7725 F       1  UNL1       -0.1682
     23 C         139.9701  137.2146  156.6507 C.ar    1  UNL1        0.1547
     24 C         139.8497  138.1015  157.8543 C.ar    1  UNL1        0.0400
     25 C         141.0723  138.4635  158.6445 C.ar    1  UNL1        0.0241
     26 C         142.4152  137.9385  158.2310 C.ar    1  UNL1        0.0033
     27 C         142.5355  137.0516  157.0273 C.ar    1  UNL1        0.0207
     28 C         141.3130  136.6896  156.2372 C.ar    1  UNL1        0.0994
     29 N         141.4334  135.8026  155.0335 N.ar    1  UNL1       -0.2839
     30 C         141.6202  136.2592  153.6169 C.ar    1  UNL1        0.1826
     31 N         141.6904  135.0421  152.7431 N.ar    1  UNL1       -0.2280
     32 C         141.5470  133.8333  153.6195 C.ar    1  UNL1        0.0786
     33 C         141.5601  132.4052  153.1609 C.3     1  UNL1        0.0538
     34 C         141.3882  134.3033  155.0351 C.ar    1  UNL1        0.0963
     35 C         138.3006  137.7280  154.7274 C.3     1  UNL1        0.2525
     36 O         138.7476  136.8527  155.8605 O.3     1  UNL1       -0.4700
@<TRIPOS>BOND
     1    35    36    1
     2    36    23    1
     3    23    24   ar
     4    24    25   ar
     5    25     1    1
     6     1     2   ar
     7     2     3   ar
     8     3     6    1
     9     6     7    1
    10     7     8    1
    11     8     9    1
    12     9    10   ar
    13    10    11   ar
    14    11    12   ar
    15    12    13   ar
    16    13    14   ar
    17    14    15    1
    18    15    18    1
    19    18    19    1
    20    19    20    1
    21    19    21    1
    22    19    22    1
    23    15    16   am
    24    16    17    2
    25     3     4   ar
    26     4     5   ar
    27    25    26   ar
    28    26    27   ar
    29    27    28   ar
    30    28    29    1
    31    29    30   ar
    32    30    31   ar
    33    31    32   ar
    34    32    33    1
    35    32    34   ar
    36    28    23   ar
    37    34    29   ar
    38     5     1   ar
    39    16     6    1
    40    14     9   ar
@<TRIPOS>MOLECULE
*****
 36 40 0 0 0
SMALL
GASTEIGER

@<TRIPOS>ATOM
      1 C         142.6921  137.6878  157.6638 C.ar    1  UNL1        0.1233
      2 C         141.9121  138.1465  158.8602 C.ar    1  UNL1        0.1181
      3 N         142.4722  139.4665  159.3005 N.ar    1  UNL1       -0.2224
      4 N         143.5983  139.8237  158.3762 N.ar    1  UNL1       -0.0634
      5 N         143.7342  138.7244  157.3646 N.ar    1  UNL1       -0.1287
      6 C         141.9907  140.2855  160.4612 C.3     1  UNL1        0.1941
      7 C         140.7727  141.1230  160.2061 C.3     1  UNL1        0.0960
      8 S         140.0541  142.0406  161.1504 S.3     1  UNL1       -0.1098
      9 C         140.3760  142.3473  162.5830 C.ar    1  UNL1        0.0390
     10 C         139.3990  143.3242  163.1671 C.ar    1  UNL1        0.0074
     11 C         139.5421  143.7659  164.5934 C.ar    1  UNL1        0.0006
     12 C         140.6621  143.2308  165.4356 C.ar    1  UNL1        0.0013
     13 C         141.6391  142.2540  164.8514 C.ar    1  UNL1        0.0154
     14 C         141.4960  141.8122  163.4251 C.ar    1  UNL1        0.0598
     15 N         142.5707  140.8382  163.0426 N.am    1  UNL1       -0.2483
     16 C         142.7910  140.1588  161.7236 C.2     1  UNL1        0.2529
     17 O         143.9188  139.1993  161.4842 O.2     1  UNL1       -0.2724
     18 C         143.5555  140.4988  164.1220 C.3     1  UNL1        0.2016
     19 C         144.9788  140.9593  164.0105 C.3     1  UNL1        0.4160
     20 F         146.4020  141.4197  163.8990 F       1  UNL1       -0.1682
     21 F         144.6821  142.3849  163.6506 F       1  UNL1       -0.1682
     22 F         145.4525  139.5794  164.3594 F       1  UNL1       -0.1682
     23 C         143.0969  133.9414  156.4189 C.ar    1  UNL1        0.1547
     24 C         143.3200  135.2132  157.1822 C.ar    1  UNL1        0.0400
     25 C         142.4690  136.4159  156.9006 C.ar    1  UNL1        0.0241
     26 C         141.3950  136.3468  155.8558 C.ar    1  UNL1        0.0033
     27 C         141.1720  135.0749  155.0925 C.ar    1  UNL1        0.0207
     28 C         142.0229  133.8722  155.3741 C.ar    1  UNL1        0.0994
     29 N         141.7998  132.6003  154.6108 N.ar    1  UNL1       -0.2839
     30 C         142.5938  132.1310  153.4279 C.ar    1  UNL1        0.1826
     31 N         142.0282  130.8151  152.9825 N.ar    1  UNL1       -0.2280
     32 C         140.8847  130.4710  153.8901 C.ar    1  UNL1        0.0786
     33 C         140.0320  129.2398  153.8062 C.3     1  UNL1        0.0538
     34 C         140.7435  131.5743  154.8965 C.ar    1  UNL1        0.0963
     35 C         144.8509  132.7226  157.8981 C.3     1  UNL1        0.2525
     36 O         143.9479  132.7386  156.7005 O.3     1  UNL1       -0.4700
@<TRIPOS>BOND
     1    35    36    1
     2    36    23    1
     3    23    24   ar
     4    24    25   ar
     5    25     1    1
     6     1     2   ar
     7     2     3   ar
     8     3     6    1
     9     6     7    1
    10     7     8    1
    11     8     9    1
    12     9    10   ar
    13    10    11   ar
    14    11    12   ar
    15    12    13   ar
    16    13    14   ar
    17    14    15    1
    18    15    18    1
    19    18    19    1
    20    19    20    1
    21    19    21    1
    22    19    22    1
    23    15    16   am
    24    16    17    2
    25     3     4   ar
    26     4     5   ar
    27    25    26   ar
    28    26    27   ar
    29    27    28   ar
    30    28    29    1
    31    29    30   ar
    32    30    31   ar
    33    31    32   ar
    34    32    33    1
    35    32    34   ar
    36    28    23   ar
    37    34    29   ar
    38     5     1   ar
    39    16     6    1
    40    14     9   ar
@<TRIPOS>MOLECULE
*****
 36 40 0 0 0
SMALL
GASTEIGER

@<TRIPOS>ATOM
      1 C         141.8905  138.6132  159.1798 C.ar    1  UNL1        0.1233
      2 C         141.6522  138.2463  160.6146 C.ar    1  UNL1        0.1181
      3 N         141.8133  139.4863  161.4431 N.ar    1  UNL1       -0.2224
      4 N         142.1510  140.6196  160.5203 N.ar    1  UNL1       -0.0634
      5 N         142.1988  140.0801  159.1215 N.ar    1  UNL1       -0.1287
      6 C         141.6629  139.5771  162.9328 C.3     1  UNL1        0.1941
      7 C         142.8868  139.2404  163.7321 C.3     1  UNL1        0.0960
      8 S         143.0585  139.2360  165.2222 S.3     1  UNL1       -0.1098
      9 C         142.0489  139.5673  166.2811 C.ar    1  UNL1        0.0390
     10 C         142.6341  139.4371  167.6561 C.ar    1  UNL1        0.0074
     11 C         141.7886  139.7245  168.8612 C.ar    1  UNL1        0.0006
     12 C         140.3579  140.1420  168.6914 C.ar    1  UNL1        0.0013
     13 C         139.7727  140.2721  167.3164 C.ar    1  UNL1        0.0154
     14 C         140.6182  139.9847  166.1113 C.ar    1  UNL1        0.0598
     15 N         139.8438  140.1740  164.8407 N.am    1  UNL1       -0.2483
     16 C         140.3087  139.9927  163.4261 C.2     1  UNL1        0.2529
     17 O         139.4145  140.2201  162.2434 O.2     1  UNL1       -0.2724
     18 C         138.4155  140.6013  165.0066 C.3     1  UNL1        0.2016
     19 C         137.9643  141.9310  164.4791 C.3     1  UNL1        0.4160
     20 F         137.5131  143.2607  163.9516 F       1  UNL1       -0.1682
     21 F         136.9087  141.4103  163.5493 F       1  UNL1       -0.1682
     22 F         138.9725  142.6190  165.3512 F       1  UNL1       -0.1682
     23 C         142.8371  135.7028  156.6534 C.ar    1  UNL1        0.1547
     24 C         142.8967  136.6383  157.8243 C.ar    1  UNL1        0.0400
     25 C         141.8309  137.6776  158.0089 C.ar    1  UNL1        0.0241
     26 C         140.7055  137.7812  157.0226 C.ar    1  UNL1        0.0033
     27 C         140.6460  136.8456  155.8517 C.ar    1  UNL1        0.0207
     28 C         141.7117  135.8064  155.6671 C.ar    1  UNL1        0.0994
     29 N         141.6521  134.8707  154.4962 N.ar    1  UNL1       -0.2839
     30 C         141.8381  135.2474  153.0562 C.ar    1  UNL1        0.1826
     31 N         141.6969  134.0036  152.2298 N.ar    1  UNL1       -0.2280
     32 C         141.4236  132.8582  153.1589 C.ar    1  UNL1        0.0786
     33 C         141.2147  131.4280  152.7578 C.3     1  UNL1        0.0538
     34 C         141.3959  133.3941  154.5596 C.ar    1  UNL1        0.0963
     35 C         144.0727  133.5744  157.4862 C.3     1  UNL1        0.2525
     36 O         143.9029  134.6635  156.4688 O.3     1  UNL1       -0.4700
@<TRIPOS>BOND
     1    35    36    1
     2    36    23    1
     3    23    24   ar
     4    24    25   ar
     5    25     1    1
     6     1     2   ar
     7     2     3   ar
     8     3     6    1
     9     6     7    1
    10     7     8    1
    11     8     9    1
    12     9    10   ar
    13    10    11   ar
    14    11    12   ar
    15    12    13   ar
    16    13    14   ar
    17    14    15    1
    18    15    18    1
    19    18    19    1
    20    19    20    1
    21    19    21    1
    22    19    22    1
    23    15    16   am
    24    16    17    2
    25     3     4   ar
    26     4     5   ar
    27    25    26   ar
    28    26    27   ar
    29    27    28   ar
    30    28    29    1
    31    29    30   ar
    32    30    31   ar
    33    31    32   ar
    34    32    33    1
    35    32    34   ar
    36    28    23   ar
    37    34    29   ar
    38     5     1   ar
    39    16     6    1
    40    14     9   ar
@<TRIPOS>MOLECULE
*****
 36 40 0 0 0
SMALL
GASTEIGER

@<TRIPOS>ATOM
      1 C         142.8978  137.2785  157.5417 C.ar    1  UNL1        0.1233
      2 C         142.6280  137.5727  158.9876 C.ar    1  UNL1        0.1181
      3 N         143.0258  138.9944  159.2535 N.ar    1  UNL1       -0.2224
      4 N         143.5415  139.5788  157.9719 N.ar    1  UNL1       -0.0634
      5 N         143.4624  138.5184  156.9139 N.ar    1  UNL1       -0.1287
      6 C         142.9255  139.7065  160.5698 C.3     1  UNL1        0.1941
      7 C         144.1773  139.7264  161.3960 C.3     1  UNL1        0.0960
      8 S         144.3993  140.3494  162.7424 S.3     1  UNL1       -0.1098
      9 C         143.4246  141.1062  163.5951 C.ar    1  UNL1        0.0390
     10 C         144.0566  141.5625  164.8766 C.ar    1  UNL1        0.0074
     11 C         143.2509  142.3396  165.8750 C.ar    1  UNL1        0.0006
     12 C         141.8132  142.6604  165.5919 C.ar    1  UNL1        0.0013
     13 C         141.1812  142.2041  164.3104 C.ar    1  UNL1        0.0154
     14 C         141.9869  141.4270  163.3120 C.ar    1  UNL1        0.0598
     15 N         141.1690  141.0702  162.1063 N.am    1  UNL1       -0.2483
     16 C         141.5866  140.3045  160.8859 C.2     1  UNL1        0.2529
     17 O         140.6518  140.0205  159.7477 O.2     1  UNL1       -0.2724
     18 C         139.7450  141.5414  162.1232 C.3     1  UNL1        0.2016
     19 C         138.6268  140.5465  162.2228 C.3     1  UNL1        0.4160
     20 F         137.5088  139.5515  162.3225 F       1  UNL1       -0.1682
     21 F         139.2140  139.7218  163.3296 F       1  UNL1       -0.1682
     22 F         137.8979  141.2552  161.1199 F       1  UNL1       -0.1682
     23 C         143.1216  133.4321  156.5907 C.ar    1  UNL1        0.1547
     24 C         143.3724  134.7369  157.2867 C.ar    1  UNL1        0.0400
     25 C         142.6471  135.9736  156.8457 C.ar    1  UNL1        0.0241
     26 C         141.6711  135.9055  155.7088 C.ar    1  UNL1        0.0033
     27 C         141.4203  134.6006  155.0128 C.ar    1  UNL1        0.0207
     28 C         142.1456  133.3639  155.4538 C.ar    1  UNL1        0.0994
     29 N         141.8948  132.0590  154.7578 N.ar    1  UNL1       -0.2839
     30 C         142.7835  131.4225  153.7306 C.ar    1  UNL1        0.1826
     31 N         142.1493  130.1317  153.3048 N.ar    1  UNL1       -0.2280
     32 C         140.8686  129.9703  154.0688 C.ar    1  UNL1        0.0786
     33 C         139.9128  128.8198  153.9548 C.3     1  UNL1        0.0538
     34 C         140.7113  131.1615  154.9668 C.ar    1  UNL1        0.0963
     35 C         145.0739  132.3102  157.8869 C.3     1  UNL1        0.2525
     36 O         143.8470  132.1954  157.0317 O.3     1  UNL1       -0.4700
@<TRIPOS>BOND
     1    35    36    1
     2    36    23    1
     3    23    24   ar
     4    24    25   ar
     5    25     1    1
     6     1     2   ar
     7     2     3   ar
     8     3     6    1
     9     6     7    1
    10     7     8    1
    11     8     9    1
    12     9    10   ar
    13    10    11   ar
    14    11    12   ar
    15    12    13   ar
    16    13    14   ar
    17    14    15    1
    18    15    18    1
    19    18    19    1
    20    19    20    1
    21    19    21    1
    22    19    22    1
    23    15    16   am
    24    16    17    2
    25     3     4   ar
    26     4     5   ar
    27    25    26   ar
    28    26    27   ar
    29    27    28   ar
    30    28    29    1
    31    29    30   ar
    32    30    31   ar
    33    31    32   ar
    34    32    33    1
    35    32    34   ar
    36    28    23   ar
    37    34    29   ar
    38     5     1   ar
    39    16     6    1
    40    14     9   ar
@<TRIPOS>MOLECULE
*****
 36 40 0 0 0
SMALL
GASTEIGER

@<TRIPOS>ATOM
      1 C         142.5753  138.1621  158.0649 C.ar    1  UNL1        0.1233
      2 C         141.7453  138.5589  159.2497 C.ar    1  UNL1        0.1181
      3 N         142.3467  139.7985  159.8428 N.ar    1  UNL1       -0.2224
      4 N         143.5484  140.1678  159.0245 N.ar    1  UNL1       -0.0634
      5 N         143.6897  139.1565  157.9257 N.ar    1  UNL1       -0.1287
      6 C         141.8362  140.5387  161.0434 C.3     1  UNL1        0.1941
      7 C         140.6347  141.4061  160.8107 C.3     1  UNL1        0.0960
      8 S         139.8949  142.2627  161.7951 S.3     1  UNL1       -0.1098
      9 C         140.1738  142.4635  163.2552 C.ar    1  UNL1        0.0390
     10 C         139.1878  143.4077  163.8767 C.ar    1  UNL1        0.0074
     11 C         139.2895  143.7456  165.3346 C.ar    1  UNL1        0.0006
     12 C         140.3771  143.1394  166.1709 C.ar    1  UNL1        0.0013
     13 C         141.3631  142.1952  165.5494 C.ar    1  UNL1        0.0154
     14 C         141.2615  141.8573  164.0916 C.ar    1  UNL1        0.0598
     15 N         142.3388  140.9005  163.6743 N.am    1  UNL1       -0.2483
     16 C         142.5946  140.3137  162.3178 C.2     1  UNL1        0.2529
     17 O         143.7206  139.3607  162.0459 O.2     1  UNL1       -0.2724
     18 C         143.2856  140.4742  164.7569 C.3     1  UNL1        0.2016
     19 C         143.2565  139.0635  165.2660 C.3     1  UNL1        0.4160
     20 F         143.2274  137.6529  165.7751 F       1  UNL1       -0.1682
     21 F         141.7766  138.9829  165.4969 F       1  UNL1       -0.1682
     22 F         144.7441  138.9715  165.0959 F       1  UNL1       -0.1682
     23 C         143.0678  134.6570  156.2702 C.ar    1  UNL1        0.1547
     24 C         143.3098  135.8403  157.1596 C.ar    1  UNL1        0.0400
     25 C         142.3333  136.9788  157.1755 C.ar    1  UNL1        0.0241
     26 C         141.1148  136.9339  156.3019 C.ar    1  UNL1        0.0033
     27 C         140.8728  135.7506  155.4125 C.ar    1  UNL1        0.0207
     28 C         141.8493  134.6122  155.3966 C.ar    1  UNL1        0.0994
     29 N         141.6072  133.4288  154.5071 N.ar    1  UNL1       -0.2839
     30 C         141.8958  133.3572  153.0369 C.ar    1  UNL1        0.1826
     31 N         141.5011  131.9935  152.5529 N.ar    1  UNL1       -0.2280
     32 C         140.9685  131.2222  153.7239 C.ar    1  UNL1        0.0786
     33 C         140.4596  129.8115  153.6927 C.3     1  UNL1        0.0538
     34 C         141.0341  132.1092  154.9317 C.ar    1  UNL1        0.0963
     35 C         144.3437  132.7696  157.5190 C.3     1  UNL1        0.2525
     36 O         144.0443  133.5185  156.2543 O.3     1  UNL1       -0.4700
@<TRIPOS>BOND
     1    35    36    1
     2    36    23    1
     3    23    24   ar
     4    24    25   ar
     5    25     1    1
     6     1     2   ar
     7     2     3   ar
     8     3     6    1
     9     6     7    1
    10     7     8    1
    11     8     9    1
    12     9    10   ar
    13    10    11   ar
    14    11    12   ar
    15    12    13   ar
    16    13    14   ar
    17    14    15    1
    18    15    18    1
    19    18    19    1
    20    19    20    1
    21    19    21    1
    22    19    22    1
    23    15    16   am
    24    16    17    2
    25     3     4   ar
    26     4     5   ar
    27    25    26   ar
    28    26    27   ar
    29    27    28   ar
    30    28    29    1
    31    29    30   ar
    32    30    31   ar
    33    31    32   ar
    34    32    33    1
    35    32    34   ar
    36    28    23   ar
    37    34    29   ar
    38     5     1   ar
    39    16     6    1
    40    14     9   ar
@<TRIPOS>MOLECULE
*****
 36 40 0 0 0
SMALL
GASTEIGER

@<TRIPOS>ATOM
      1 C         139.4924  143.4302  160.1991 C.ar    1  UNL1        0.1233
      2 C         140.4259  143.2517  161.3595 C.ar    1  UNL1        0.1181
      3 N         139.6846  142.5271  162.4437 N.ar    1  UNL1       -0.2224
      4 N         138.2929  142.2577  161.9532 N.ar    1  UNL1       -0.0634
      5 N         138.1741  142.8159  160.5660 N.ar    1  UNL1       -0.1287
      6 C         140.2379  142.1398  163.7830 C.3     1  UNL1        0.1941
      7 C         139.8932  143.0564  164.9193 C.3     1  UNL1        0.0960
      8 S         140.2882  142.9467  166.3622 S.3     1  UNL1       -0.1098
      9 C         141.1254  141.8934  167.0252 C.ar    1  UNL1        0.0390
     10 C         141.2800  142.1599  168.4932 C.ar    1  UNL1        0.0074
     11 C         142.0837  141.2226  169.3450 C.ar    1  UNL1        0.0006
     12 C         142.7327  140.0188  168.7289 C.ar    1  UNL1        0.0013
     13 C         142.5781  139.7523  167.2609 C.ar    1  UNL1        0.0154
     14 C         141.7744  140.6896  166.4091 C.ar    1  UNL1        0.0598
     15 N         141.7465  140.2418  164.9777 N.am    1  UNL1       -0.2483
     16 C         141.0627  140.8872  163.8090 C.2     1  UNL1        0.2529
     17 O         141.1219  140.3211  162.4212 O.2     1  UNL1       -0.2724
     18 C         142.5024  138.9821  164.6750 C.3     1  UNL1        0.2016
     19 C         141.7719  137.7706  164.1761 C.3     1  UNL1        0.4160
     20 F         141.0414  136.5592  163.6772 F       1  UNL1       -0.1682
     21 F         140.7510  137.7079  165.2733 F       1  UNL1       -0.1682
     22 F         142.7108  137.6850  163.0093 F       1  UNL1       -0.1682
     23 C         139.5024  144.3114  156.3296 C.ar    1  UNL1        0.1547
     24 C         139.1750  143.6369  157.6287 C.ar    1  UNL1        0.0400
     25 C         139.8197  144.1046  158.8998 C.ar    1  UNL1        0.0241
     26 C         140.7916  145.2468  158.8717 C.ar    1  UNL1        0.0033
     27 C         141.1190  145.9212  157.5725 C.ar    1  UNL1        0.0207
     28 C         140.4743  145.4535  156.3015 C.ar    1  UNL1        0.0994
     29 N         140.8017  146.1279  155.0022 N.ar    1  UNL1       -0.2839
     30 C         141.7689  145.6300  153.9694 C.ar    1  UNL1        0.1826
     31 N         141.7842  146.6131  152.8366 N.ar    1  UNL1       -0.2280
     32 C         140.8266  147.7186  153.1692 C.ar    1  UNL1        0.0786
     33 C         140.5285  148.9141  152.3137 C.3     1  UNL1        0.0538
     34 C         140.2193  147.4188  154.5076 C.ar    1  UNL1        0.0963
     35 C         137.5796  144.4736  154.5898 C.3     1  UNL1        0.2525
     36 O         138.8577  143.8436  155.0585 O.3     1  UNL1       -0.4700
@<TRIPOS>BOND
     1    35    36    1
     2    36    23    1
     3    23    24   ar
     4    24    25   ar
     5    25     1    1
     6     1     2   ar
     7     2     3   ar
     8     3     6    1
     9     6     7    1
    10     7     8    1
    11     8     9    1
    12     9    10   ar
    13    10    11   ar
    14    11    12   ar
    15    12    13   ar
    16    13    14   ar
    17    14    15    1
    18    15    18    1
    19    18    19    1
    20    19    20    1
    21    19    21    1
    22    19    22    1
    23    15    16   am
    24    16    17    2
    25     3     4   ar
    26     4     5   ar
    27    25    26   ar
    28    26    27   ar
    29    27    28   ar
    30    28    29    1
    31    29    30   ar
    32    30    31   ar
    33    31    32   ar
    34    32    33    1
    35    32    34   ar
    36    28    23   ar
    37    34    29   ar
    38     5     1   ar
    39    16     6    1
    40    14     9   ar
@<TRIPOS>MOLECULE
*****
 36 40 0 0 0
SMALL
GASTEIGER

@<TRIPOS>ATOM
      1 C         142.4324  138.9526  160.9266 C.ar    1  UNL1        0.1233
      2 C         141.4956  138.3757  159.9070 C.ar    1  UNL1        0.1181
      3 N         142.1922  138.3871  158.5786 N.ar    1  UNL1       -0.2224
      4 N         143.5595  138.9711  158.7772 N.ar    1  UNL1       -0.0634
      5 N         143.7079  139.3206  160.2283 N.ar    1  UNL1       -0.1287
      6 C         141.6216  137.9000  157.2796 C.3     1  UNL1        0.1941
      7 C         140.4898  138.7107  156.7212 C.3     1  UNL1        0.0960
      8 S         139.7153  138.4882  155.4561 S.3     1  UNL1       -0.1098
      9 C         139.8810  137.4001  154.4369 C.ar    1  UNL1        0.0390
     10 C         138.8963  137.5455  153.3149 C.ar    1  UNL1        0.0074
     11 C         138.8929  136.5565  152.1872 C.ar    1  UNL1        0.0006
     12 C         139.8742  135.4221  152.1815 C.ar    1  UNL1        0.0013
     13 C         140.8590  135.2767  153.3035 C.ar    1  UNL1        0.0154
     14 C         140.8624  136.2657  154.4313 C.ar    1  UNL1        0.0598
     15 N         141.9204  135.9393  155.4433 N.am    1  UNL1       -0.2483
     16 C         142.2583  136.6666  156.7109 C.2     1  UNL1        0.2529
     17 O         143.3527  136.2203  157.6346 O.2     1  UNL1       -0.2724
     18 C         142.7502  134.7250  155.1487 C.3     1  UNL1        0.2016
     19 C         142.6243  133.5035  156.0102 C.3     1  UNL1        0.4160
     20 F         142.4982  132.2820  156.8716 F       1  UNL1       -0.1682
     21 F         141.1514  133.2947  155.8173 F       1  UNL1       -0.1682
     22 F         144.0927  133.5637  156.3103 F       1  UNL1       -0.1682
     23 C         141.9180  140.6744  164.4650 C.ar    1  UNL1        0.1547
     24 C         142.2062  140.4967  163.0038 C.ar    1  UNL1        0.0400
     25 C         142.1442  139.1304  162.3878 C.ar    1  UNL1        0.0241
     26 C         141.7940  137.9418  163.2332 C.ar    1  UNL1        0.0033
     27 C         141.5058  138.1196  164.6945 C.ar    1  UNL1        0.0207
     28 C         141.5678  139.4858  165.3103 C.ar    1  UNL1        0.0994
     29 N         141.2796  139.6635  166.7717 N.ar    1  UNL1       -0.2839
     30 C         142.2698  139.5211  167.8894 C.ar    1  UNL1        0.1826
     31 N         141.5527  139.7844  169.1802 N.ar    1  UNL1       -0.2280
     32 C         140.1194  140.0895  168.8605 C.ar    1  UNL1        0.0786
     33 C         139.0437  140.4126  169.8547 C.3     1  UNL1        0.0538
     34 C         139.9505  140.0148  167.3719 C.ar    1  UNL1        0.0963
     35 C         143.2578  142.5285  165.6967 C.3     1  UNL1        0.2525
     36 O         141.9800  142.0407  165.0809 O.3     1  UNL1       -0.4700
@<TRIPOS>BOND
     1    35    36    1
     2    36    23    1
     3    23    24   ar
     4    24    25   ar
     5    25     1    1
     6     1     2   ar
     7     2     3   ar
     8     3     6    1
     9     6     7    1
    10     7     8    1
    11     8     9    1
    12     9    10   ar
    13    10    11   ar
    14    11    12   ar
    15    12    13   ar
    16    13    14   ar
    17    14    15    1
    18    15    18    1
    19    18    19    1
    20    19    20    1
    21    19    21    1
    22    19    22    1
    23    15    16   am
    24    16    17    2
    25     3     4   ar
    26     4     5   ar
    27    25    26   ar
    28    26    27   ar
    29    27    28   ar
    30    28    29    1
    31    29    30   ar
    32    30    31   ar
    33    31    32   ar
    34    32    33    1
    35    32    34   ar
    36    28    23   ar
    37    34    29   ar
    38     5     1   ar
    39    16     6    1
    40    14     9   ar
@<TRIPOS>MOLECULE
*****
 36 40 0 0 0
SMALL
GASTEIGER

@<TRIPOS>ATOM
      1 C         142.8070  141.2825  157.9728 C.ar    1  UNL1        0.1233
      2 C         142.6786  140.8015  159.3878 C.ar    1  UNL1        0.1181
      3 N         141.2177  140.7080  159.7148 N.ar    1  UNL1       -0.2224
      4 N         140.4432  141.1311  158.5019 N.ar    1  UNL1       -0.0634
      5 N         141.4255  141.4862  157.4253 N.ar    1  UNL1       -0.1287
      6 C         140.6337  140.2684  161.0247 C.3     1  UNL1        0.1941
      7 C         140.5024  138.7862  161.2140 C.3     1  UNL1        0.0960
      8 S         139.9633  138.0388  162.3975 S.3     1  UNL1       -0.1098
      9 C         139.4223  138.5888  163.6839 C.ar    1  UNL1        0.0390
     10 C         138.9843  137.4914  164.6080 C.ar    1  UNL1        0.0074
     11 C         138.4109  137.8275  165.9527 C.ar    1  UNL1        0.0006
     12 C         138.2754  139.2609  166.3733 C.ar    1  UNL1        0.0013
     13 C         138.7134  140.3583  165.4492 C.ar    1  UNL1        0.0154
     14 C         139.2868  140.0222  164.1045 C.ar    1  UNL1        0.0598
     15 N         139.6589  141.2596  163.3426 N.am    1  UNL1       -0.2483
     16 C         140.2583  141.3692  161.9720 C.2     1  UNL1        0.2529
     17 O         140.5805  142.6865  161.3310 O.2     1  UNL1       -0.2724
     18 C         139.3969  142.5593  164.0442 C.3     1  UNL1        0.2016
     19 C         138.3453  143.4939  163.5237 C.3     1  UNL1        0.4160
     20 F         137.2937  144.4283  163.0033 F       1  UNL1       -0.1682
     21 F         137.2111  142.5122  163.5255 F       1  UNL1       -0.1682
     22 F         139.3589  144.5977  163.4579 F       1  UNL1       -0.1682
     23 C         145.5943  141.1272  155.1520 C.ar    1  UNL1        0.1547
     24 C         144.3098  140.8914  155.8898 C.ar    1  UNL1        0.0400
     25 C         144.0915  141.5183  157.2349 C.ar    1  UNL1        0.0241
     26 C         145.1577  142.3811  157.8421 C.ar    1  UNL1        0.0033
     27 C         146.4422  142.6170  157.1043 C.ar    1  UNL1        0.0207
     28 C         146.6605  141.9900  155.7592 C.ar    1  UNL1        0.0994
     29 N         147.9450  142.2259  155.0214 N.ar    1  UNL1       -0.2839
     30 C         148.1416  143.1711  153.8733 C.ar    1  UNL1        0.1826
     31 N         149.5765  143.0873  153.4445 N.ar    1  UNL1       -0.2280
     32 C         150.2668  142.0905  154.3275 C.ar    1  UNL1        0.0786
     33 C         151.7117  141.6953  154.2497 C.3     1  UNL1        0.0538
     34 C         149.2585  141.5581  155.3021 C.ar    1  UNL1        0.0963
     35 C         145.3061  141.1820  152.5706 C.3     1  UNL1        0.2525
     36 O         145.8126  140.5003  153.8069 O.3     1  UNL1       -0.4700
@<TRIPOS>BOND
     1    35    36    1
     2    36    23    1
     3    23    24   ar
     4    24    25   ar
     5    25     1    1
     6     1     2   ar
     7     2     3   ar
     8     3     6    1
     9     6     7    1
    10     7     8    1
    11     8     9    1
    12     9    10   ar
    13    10    11   ar
    14    11    12   ar
    15    12    13   ar
    16    13    14   ar
    17    14    15    1
    18    15    18    1
    19    18    19    1
    20    19    20    1
    21    19    21    1
    22    19    22    1
    23    15    16   am
    24    16    17    2
    25     3     4   ar
    26     4     5   ar
    27    25    26   ar
    28    26    27   ar
    29    27    28   ar
    30    28    29    1
    31    29    30   ar
    32    30    31   ar
    33    31    32   ar
    34    32    33    1
    35    32    34   ar
    36    28    23   ar
    37    34    29   ar
    38     5     1   ar
    39    16     6    1
    40    14     9   ar
@<TRIPOS>MOLECULE
*****
 36 40 0 0 0
SMALL
GASTEIGER

@<TRIPOS>ATOM
      1 C         143.2742  139.7411  160.1389 C.ar    1  UNL1        0.1233
      2 C         143.0474  140.3198  161.5041 C.ar    1  UNL1        0.1181
      3 N         142.4688  139.2432  162.3737 N.ar    1  UNL1       -0.2224
      4 N         142.3381  137.9991  161.5459 N.ar    1  UNL1       -0.0634
      5 N         142.8359  138.3068  160.1648 N.ar    1  UNL1       -0.1287
      6 C         142.0879  139.3856  163.8175 C.3     1  UNL1        0.1941
      7 C         143.1877  139.1414  164.8079 C.3     1  UNL1        0.0960
      8 S         143.1286  139.2048  166.3054 S.3     1  UNL1       -0.1098
      9 C         141.9554  139.5279  167.1824 C.ar    1  UNL1        0.0390
     10 C         142.3275  139.4815  168.6347 C.ar    1  UNL1        0.0074
     11 C         141.2956  139.7746  169.6830 C.ar    1  UNL1        0.0006
     12 C         139.8915  140.1143  169.2791 C.ar    1  UNL1        0.0013
     13 C         139.5194  140.1607  167.8267 C.ar    1  UNL1        0.0154
     14 C         140.5513  139.8675  166.7784 C.ar    1  UNL1        0.0598
     15 N         139.9738  139.9679  165.3976 N.am    1  UNL1       -0.2483
     16 C         140.6575  139.7535  164.0799 C.2     1  UNL1        0.2529
     17 O         139.9467  139.8895  162.7660 O.2     1  UNL1       -0.2724
     18 C         138.5201  140.3307  165.3251 C.3     1  UNL1        0.2016
     19 C         138.0958  141.5937  164.6360 C.3     1  UNL1        0.4160
     20 F         137.6715  142.8567  163.9468 F       1  UNL1       -0.1682
     21 F         137.1595  140.9589  163.6509 F       1  UNL1       -0.1682
     22 F         138.9871  142.3885  165.5438 F       1  UNL1       -0.1682
     23 C         144.4703  140.5193  156.4357 C.ar    1  UNL1        0.1547
     24 C         143.9044  139.7915  157.6189 C.ar    1  UNL1        0.0400
     25 C         143.8401  140.4689  158.9557 C.ar    1  UNL1        0.0241
     26 C         144.3417  141.8742  159.1092 C.ar    1  UNL1        0.0033
     27 C         144.9075  142.6020  157.9260 C.ar    1  UNL1        0.0207
     28 C         144.9718  141.9246  156.5893 C.ar    1  UNL1        0.0994
     29 N         145.5377  142.6525  155.4060 N.ar    1  UNL1       -0.2839
     30 C         144.7470  143.2886  154.3014 C.ar    1  UNL1        0.1826
     31 N         145.7143  143.9013  153.3324 N.ar    1  UNL1       -0.2280
     32 C         147.1028  143.6439  153.8381 C.ar    1  UNL1        0.0786
     33 C         148.3768  144.0814  153.1781 C.3     1  UNL1        0.0538
     34 C         146.9937  142.8721  155.1197 C.ar    1  UNL1        0.0963
     35 C         144.6803  138.3511  155.0199 C.3     1  UNL1        0.2525
     36 O         144.5346  139.8419  155.0990 O.3     1  UNL1       -0.4700
@<TRIPOS>BOND
     1    35    36    1
     2    36    23    1
     3    23    24   ar
     4    24    25   ar
     5    25     1    1
     6     1     2   ar
     7     2     3   ar
     8     3     6    1
     9     6     7    1
    10     7     8    1
    11     8     9    1
    12     9    10   ar
    13    10    11   ar
    14    11    12   ar
    15    12    13   ar
    16    13    14   ar
    17    14    15    1
    18    15    18    1
    19    18    19    1
    20    19    20    1
    21    19    21    1
    22    19    22    1
    23    15    16   am
    24    16    17    2
    25     3     4   ar
    26     4     5   ar
    27    25    26   ar
    28    26    27   ar
    29    27    28   ar
    30    28    29    1
    31    29    30   ar
    32    30    31   ar
    33    31    32   ar
    34    32    33    1
    35    32    34   ar
    36    28    23   ar
    37    34    29   ar
    38     5     1   ar
    39    16     6    1
    40    14     9   ar
