@<TRIPOS>MOLECULE
*****
 40 44 0 0 0
SMALL
GASTEIGER

@<TRIPOS>ATOM
      1 C         141.7325  140.9986  167.0104 C.3     1  UNL1        0.1836
      2 C         141.8000  141.1660  168.4995 C.2     1  UNL1        0.1125
      3 C         141.2369  142.2091  169.4187 C.2     1  UNL1        0.3424
      4 N         140.4376  143.3488  168.8599 N.pl3   1  UNL1       -0.2446
      5 N         141.4730  142.1124  170.8968 N.2     1  UNL1        0.0722
      6 N         142.2722  140.9728  171.4558 N.am    1  UNL1        0.0405
      7 C         142.8353  139.9297  170.5366 C.2     1  UNL1        0.3289
      8 O         143.6345  138.7900  171.0955 O.2     1  UNL1       -0.2626
      9 C         142.5992  140.0264  169.0584 C.2     1  UNL1        0.1626
     10 N         143.0257  139.1545  167.9147 N.2     1  UNL1       -0.1725
     11 N         142.4900  139.7554  166.6490 N.pl3   1  UNL1       -0.2013
     12 H         140.2826  143.4123  167.8897 H       1  UNL1        0.2885
     13 H         140.0681  144.0334  169.4632 H       1  UNL1        0.2885
     14 C         143.1618  143.1629  165.0299 C.3     1  UNL1        0.0340
     15 C         141.6877  142.9085  165.1408 C.ar    1  UNL1        0.0135
     16 C         141.0307  141.9137  166.0511 C.ar    1  UNL1        0.1432
     17 O         139.5488  141.9946  165.8338 O.2     1  UNL1       -0.4560
     18 C         139.2899  143.0394  164.7891 C.ar    1  UNL1        0.1447
     19 C         138.0212  143.5495  164.1725 C.ar    1  UNL1        0.0383
     20 C         138.0744  144.6243  163.1277 C.ar    1  UNL1        0.0145
     21 C         139.3963  145.1891  162.6994 C.ar    1  UNL1        0.0579
     22 CL        139.4495  146.2641  161.6545 Cl      1  UNL1       -0.0822
     23 C         140.6650  144.6791  163.3160 C.ar    1  UNL1        0.0142
     24 C         140.6118  143.6042  164.3608 C.ar    1  UNL1        0.0341
     25 C         142.6788  139.2090  165.2649 C.ar    1  UNL1        0.0699
     26 C         143.8923  139.5872  164.4683 C.ar    1  UNL1        0.0176
     27 C         144.0811  139.0408  163.0841 C.ar    1  UNL1        0.0160
     28 C         143.0565  138.1162  162.4966 C.ar    1  UNL1        0.0506
     29 C         141.8431  137.7380  163.2932 C.ar    1  UNL1        0.0160
     30 C         141.6543  138.2844  164.6773 C.ar    1  UNL1        0.0176
     31 N         143.2453  137.5698  161.1125 N.am    1  UNL1       -0.2804
     32 C         142.5121  138.1843  159.9572 C.2     1  UNL1        0.2494
     33 O         141.5902  139.3453  160.1859 O.2     1  UNL1       -0.2698
     34 H         143.8503  136.8078  160.9623 H       1  UNL1        0.1552
     35 C         142.7008  137.6380  158.5730 C.2     1  UNL1        0.0549
     36 C         141.6351  137.8367  157.5364 C.2     1  UNL1       -0.0041
     37 C         141.8239  137.2903  156.1522 C.3     1  UNL1        0.0991
     38 N         142.7272  136.1142  155.9270 N.3     1  UNL1       -0.2665
     39 C         142.2053  134.7207  156.1163 C.3     1  UNL1        0.0899
     40 C         144.1523  136.3315  155.5126 C.3     1  UNL1        0.0899
@<TRIPOS>BOND
     1    14    15    1
     2    15    16   ar
     3    16     1    1
     4     1     2    1
     5     2     3    2
     6     3     4    1
     7     3     5    1
     8     5     6    2
     9     6     7    1
    10     7     8    2
    11     7     9    1
    12     9    10    2
    13    10    11    1
    14    11    25    1
    15    25    26   ar
    16    26    27   ar
    17    27    28   ar
    18    28    31    1
    19    31    32   am
    20    32    33    2
    21    32    35    1
    22    35    36    2
    23    36    37    1
    24    37    38    1
    25    38    39    1
    26    38    40    1
    27    28    29   ar
    28    29    30   ar
    29    16    17   ar
    30    17    18   ar
    31    18    19   ar
    32    19    20   ar
    33    20    21   ar
    34    21    22    1
    35    21    23   ar
    36    23    24   ar
    37    24    15   ar
    38    11     1    1
    39    30    25   ar
    40    24    18   ar
    41     9     2    1
    42     4    12    1
    43     4    13    1
    44    31    34    1
@<TRIPOS>MOLECULE
*****
 40 44 0 0 0
SMALL
GASTEIGER

@<TRIPOS>ATOM
      1 C         141.9886  141.4645  166.7538 C.3     1  UNL1        0.1836
      2 C         141.7961  141.5851  168.2365 C.2     1  UNL1        0.1125
      3 C         140.7677  141.0104  169.1650 C.2     1  UNL1        0.3424
      4 N         139.6760  140.1344  168.6256 N.pl3   1  UNL1       -0.2446
      5 N         140.8310  141.3117  170.6331 N.2     1  UNL1        0.0722
      6 N         141.9226  142.1877  171.1726 N.am    1  UNL1        0.0405
      7 C         142.9509  142.7623  170.2441 C.2     1  UNL1        0.3289
      8 O         144.0426  143.6383  170.7836 O.2     1  UNL1       -0.2626
      9 C         142.8877  142.4610  168.7760 C.2     1  UNL1        0.1626
     10 N         143.7549  142.8818  167.6267 N.2     1  UNL1       -0.1725
     11 N         143.1993  142.2659  166.3770 N.pl3   1  UNL1       -0.2013
     12 H         139.6345  139.9366  167.6620 H       1  UNL1        0.2885
     13 H         139.0011  139.7573  169.2351 H       1  UNL1        0.2885
     14 C         140.1775  142.6968  164.3350 C.3     1  UNL1        0.0340
     15 C         140.2901  141.2466  164.7013 C.ar    1  UNL1        0.0135
     16 C         141.1226  140.6802  165.8131 C.ar    1  UNL1        0.1432
     17 O         140.9370  139.1917  165.8191 O.2     1  UNL1       -0.4560
     18 C         139.9899  138.8382  164.7110 C.ar    1  UNL1        0.1447
     19 C         139.4398  137.5240  164.2417 C.ar    1  UNL1        0.0383
     20 C         138.4899  137.4798  163.0817 C.ar    1  UNL1        0.0145
     21 C         138.0901  138.7498  162.3909 C.ar    1  UNL1        0.0579
     22 CL        137.1402  138.7055  161.2308 Cl      1  UNL1       -0.0822
     23 C         138.6402  140.0640  162.8601 C.ar    1  UNL1        0.0142
     24 C         139.5900  140.1082  164.0201 C.ar    1  UNL1        0.0341
     25 C         143.7565  142.4238  164.9933 C.ar    1  UNL1        0.0699
     26 C         144.4279  141.2645  164.3183 C.ar    1  UNL1        0.0176
     27 C         144.9851  141.4223  162.9346 C.ar    1  UNL1        0.0160
     28 C         144.8710  142.7393  162.2259 C.ar    1  UNL1        0.0506
     29 C         144.1996  143.8985  162.9008 C.ar    1  UNL1        0.0160
     30 C         143.6424  143.7407  164.2845 C.ar    1  UNL1        0.0176
     31 N         145.4282  142.8972  160.8422 N.am    1  UNL1       -0.2804
     32 C         144.6137  142.4802  159.6537 C.2     1  UNL1        0.2494
     33 O         143.2420  141.9054  159.8488 O.2     1  UNL1       -0.2698
     34 H         146.3285  143.2744  160.7141 H       1  UNL1        0.1552
     35 C         145.1709  142.6380  158.2699 C.2     1  UNL1        0.0549
     36 C         146.6365  142.8914  158.0758 C.2     1  UNL1       -0.0041
     37 C         147.1935  143.0492  156.6920 C.3     1  UNL1        0.0991
     38 N         147.4964  141.8366  155.8628 N.3     1  UNL1       -0.2665
     39 C         146.3864  140.9199  155.4412 C.3     1  UNL1        0.0899
     40 C         148.9092  141.5405  155.4550 C.3     1  UNL1        0.0899
@<TRIPOS>BOND
     1    14    15    1
     2    15    16   ar
     3    16     1    1
     4     1     2    1
     5     2     3    2
     6     3     4    1
     7     3     5    1
     8     5     6    2
     9     6     7    1
    10     7     8    2
    11     7     9    1
    12     9    10    2
    13    10    11    1
    14    11    25    1
    15    25    26   ar
    16    26    27   ar
    17    27    28   ar
    18    28    31    1
    19    31    32   am
    20    32    33    2
    21    32    35    1
    22    35    36    2
    23    36    37    1
    24    37    38    1
    25    38    39    1
    26    38    40    1
    27    28    29   ar
    28    29    30   ar
    29    16    17   ar
    30    17    18   ar
    31    18    19   ar
    32    19    20   ar
    33    20    21   ar
    34    21    22    1
    35    21    23   ar
    36    23    24   ar
    37    24    15   ar
    38    11     1    1
    39    30    25   ar
    40    24    18   ar
    41     9     2    1
    42     4    12    1
    43     4    13    1
    44    31    34    1
@<TRIPOS>MOLECULE
*****
 40 44 0 0 0
SMALL
GASTEIGER

@<TRIPOS>ATOM
      1 C         141.0253  141.8837  166.5984 C.3     1  UNL1        0.1836
      2 C         140.9784  141.5620  168.0628 C.2     1  UNL1        0.1125
      3 C         141.4997  140.3977  168.8517 C.2     1  UNL1        0.3424
      4 N         142.2215  139.2824  168.1551 N.pl3   1  UNL1       -0.2446
      5 N         141.2993  140.3486  170.3375 N.2     1  UNL1        0.0722
      6 N         140.5776  141.4638  171.0342 N.am    1  UNL1        0.0405
      7 C         140.0563  142.6281  170.2452 C.2     1  UNL1        0.3289
      8 O         139.3346  143.7433  170.9420 O.2     1  UNL1       -0.2626
      9 C         140.2567  142.6773  168.7595 C.2     1  UNL1        0.1626
     10 N         139.8575  143.6882  167.7258 N.2     1  UNL1       -0.1725
     11 N         140.3325  143.1977  166.3901 N.pl3   1  UNL1       -0.2013
     12 H         142.3530  139.3146  167.1799 H       1  UNL1        0.2885
     13 H         142.5636  138.5183  168.6730 H       1  UNL1        0.2885
     14 C         139.4523  140.3844  164.1638 C.3     1  UNL1        0.0340
     15 C         140.9314  140.3504  164.4109 C.ar    1  UNL1        0.0135
     16 C         141.6544  141.0396  165.5300 C.ar    1  UNL1        0.1432
     17 O         143.1170  140.7364  165.3929 O.2     1  UNL1       -0.4560
     18 C         143.2980  139.8598  164.1892 C.ar    1  UNL1        0.1447
     19 C         144.5182  139.2481  163.5674 C.ar    1  UNL1        0.0383
     20 C         144.3877  138.3978  162.3386 C.ar    1  UNL1        0.0145
     21 C         143.0368  138.1593  161.7317 C.ar    1  UNL1        0.0579
     22 CL        142.9063  137.3089  160.5028 Cl      1  UNL1       -0.0822
     23 C         141.8166  138.7710  162.3535 C.ar    1  UNL1        0.0142
     24 C         141.9472  139.6213  163.5823 C.ar    1  UNL1        0.0341
     25 C         140.1472  143.8983  165.0768 C.ar    1  UNL1        0.0699
     26 C         141.3336  144.4668  164.3560 C.ar    1  UNL1        0.0176
     27 C         141.1483  145.1674  163.0427 C.ar    1  UNL1        0.0160
     28 C         139.7767  145.2996  162.4501 C.ar    1  UNL1        0.0506
     29 C         138.5904  144.7312  163.1709 C.ar    1  UNL1        0.0160
     30 C         138.7756  144.0306  164.4842 C.ar    1  UNL1        0.0176
     31 N         139.5914  146.0002  161.1368 N.am    1  UNL1       -0.2804
     32 C         140.1689  145.4106  159.8843 C.2     1  UNL1        0.2494
     33 O         140.9316  144.1204  159.9450 O.2     1  UNL1       -0.2698
     34 H         139.0908  146.8470  161.0969 H       1  UNL1        0.1552
     35 C         139.9836  146.1112  158.5709 C.2     1  UNL1        0.0549
     36 C         140.7761  145.6801  157.3725 C.2     1  UNL1       -0.0041
     37 C         140.5908  146.3807  156.0592 C.3     1  UNL1        0.0991
     38 N         139.2273  146.8486  155.6447 N.3     1  UNL1       -0.2665
     39 C         138.2066  145.8576  155.1693 C.3     1  UNL1        0.0899
     40 C         138.8844  148.3076  155.7056 C.3     1  UNL1        0.0899
@<TRIPOS>BOND
     1    14    15    1
     2    15    16   ar
     3    16     1    1
     4     1     2    1
     5     2     3    2
     6     3     4    1
     7     3     5    1
     8     5     6    2
     9     6     7    1
    10     7     8    2
    11     7     9    1
    12     9    10    2
    13    10    11    1
    14    11    25    1
    15    25    26   ar
    16    26    27   ar
    17    27    28   ar
    18    28    31    1
    19    31    32   am
    20    32    33    2
    21    32    35    1
    22    35    36    2
    23    36    37    1
    24    37    38    1
    25    38    39    1
    26    38    40    1
    27    28    29   ar
    28    29    30   ar
    29    16    17   ar
    30    17    18   ar
    31    18    19   ar
    32    19    20   ar
    33    20    21   ar
    34    21    22    1
    35    21    23   ar
    36    23    24   ar
    37    24    15   ar
    38    11     1    1
    39    30    25   ar
    40    24    18   ar
    41     9     2    1
    42     4    12    1
    43     4    13    1
    44    31    34    1
@<TRIPOS>MOLECULE
*****
 40 44 0 0 0
SMALL
GASTEIGER

@<TRIPOS>ATOM
      1 C         139.5215  140.1844  166.6089 C.3     1  UNL1        0.1836
      2 C         139.1568  140.0964  168.0612 C.2     1  UNL1        0.1125
      3 C         139.7232  140.7618  169.2804 C.2     1  UNL1        0.3424
      4 N         140.8731  141.7160  169.1482 N.pl3   1  UNL1       -0.2446
      5 N         139.1398  140.4731  170.6318 N.2     1  UNL1        0.0722
      6 N         137.9900  139.5189  170.7640 N.am    1  UNL1        0.0405
      7 C         137.4236  138.8535  169.5448 C.2     1  UNL1        0.3289
      8 O         136.2738  137.8993  169.6771 O.2     1  UNL1       -0.2626
      9 C         138.0070  139.1422  168.1935 C.2     1  UNL1        0.1626
     10 N         137.6610  138.6405  166.8228 N.2     1  UNL1       -0.1725
     11 N         138.5970  139.2847  165.8436 N.pl3   1  UNL1       -0.2013
     12 H         141.2560  141.9056  168.2613 H       1  UNL1        0.2885
     13 H         141.2448  142.1527  169.9484 H       1  UNL1        0.2885
     14 C         139.1394  143.0352  165.0673 C.3     1  UNL1        0.0340
     15 C         140.4425  142.3350  165.3160 C.ar    1  UNL1        0.0135
     16 C         140.6181  141.0247  166.0245 C.ar    1  UNL1        0.1432
     17 O         142.0828  140.7021  166.0462 O.2     1  UNL1       -0.4560
     18 C         142.8125  141.8131  165.3510 C.ar    1  UNL1        0.1447
     19 C         144.2690  142.0362  165.0706 C.ar    1  UNL1        0.0383
     20 C         144.7118  143.2685  164.3389 C.ar    1  UNL1        0.0145
     21 C         143.6980  144.2777  163.8875 C.ar    1  UNL1        0.0579
     22 CL        144.1408  145.5100  163.1558 Cl      1  UNL1       -0.0822
     23 C         142.2414  144.0546  164.1679 C.ar    1  UNL1        0.0142
     24 C         141.7987  142.8223  164.8997 C.ar    1  UNL1        0.0341
     25 C         138.6068  139.0672  164.3594 C.ar    1  UNL1        0.0699
     26 C         137.8477  139.9972  163.4601 C.ar    1  UNL1        0.0176
     27 C         137.8575  139.7797  161.9759 C.ar    1  UNL1        0.0160
     28 C         138.6264  138.6322  161.3911 C.ar    1  UNL1        0.0506
     29 C         139.3855  137.7023  162.2905 C.ar    1  UNL1        0.0160
     30 C         139.3757  137.9198  163.7746 C.ar    1  UNL1        0.0176
     31 N         138.6362  138.4147  159.9070 N.am    1  UNL1       -0.2804
     32 C         139.7896  138.9076  159.0845 C.2     1  UNL1        0.2494
     33 O         140.9332  139.6180  159.7460 O.2     1  UNL1       -0.2698
     34 H         137.8856  137.9485  159.4728 H       1  UNL1        0.1552
     35 C         139.7995  138.6902  157.6003 C.2     1  UNL1        0.0549
     36 C         140.7570  137.7086  156.9924 C.2     1  UNL1       -0.0041
     37 C         140.7669  137.4912  155.5083 C.3     1  UNL1        0.0991
     38 N         141.3477  136.2309  154.9388 N.3     1  UNL1       -0.2665
     39 C         141.8475  135.1542  155.8558 C.3     1  UNL1        0.0899
     40 C         141.4287  136.0473  153.4523 C.3     1  UNL1        0.0899
@<TRIPOS>BOND
     1    14    15    1
     2    15    16   ar
     3    16     1    1
     4     1     2    1
     5     2     3    2
     6     3     4    1
     7     3     5    1
     8     5     6    2
     9     6     7    1
    10     7     8    2
    11     7     9    1
    12     9    10    2
    13    10    11    1
    14    11    25    1
    15    25    26   ar
    16    26    27   ar
    17    27    28   ar
    18    28    31    1
    19    31    32   am
    20    32    33    2
    21    32    35    1
    22    35    36    2
    23    36    37    1
    24    37    38    1
    25    38    39    1
    26    38    40    1
    27    28    29   ar
    28    29    30   ar
    29    16    17   ar
    30    17    18   ar
    31    18    19   ar
    32    19    20   ar
    33    20    21   ar
    34    21    22    1
    35    21    23   ar
    36    23    24   ar
    37    24    15   ar
    38    11     1    1
    39    30    25   ar
    40    24    18   ar
    41     9     2    1
    42     4    12    1
    43     4    13    1
    44    31    34    1
@<TRIPOS>MOLECULE
*****
 40 44 0 0 0
SMALL
GASTEIGER

@<TRIPOS>ATOM
      1 C         139.6992  140.0699  166.9998 C.3     1  UNL1        0.1836
      2 C         139.4485  139.8837  168.4669 C.2     1  UNL1        0.1125
      3 C         140.2813  140.1953  169.6749 C.2     1  UNL1        0.3424
      4 N         141.6393  140.8110  169.5113 N.pl3   1  UNL1       -0.2446
      5 N         139.7562  139.8911  171.0467 N.2     1  UNL1        0.0722
      6 N         138.3982  139.2754  171.2104 N.am    1  UNL1        0.0405
      7 C         137.5654  138.9638  170.0024 C.2     1  UNL1        0.3289
      8 O         136.2074  138.3481  170.1661 O.2     1  UNL1       -0.2626
      9 C         138.0905  139.2680  168.6307 C.2     1  UNL1        0.1626
     10 N         137.5020  139.0737  167.2647 N.2     1  UNL1       -0.1725
     11 N         138.4962  139.5693  166.2568 N.pl3   1  UNL1       -0.2013
     12 H         141.9840  141.0107  168.6110 H       1  UNL1        0.2885
     13 H         142.1859  141.0155  170.3042 H       1  UNL1        0.2885
     14 C         141.9437  138.4359  165.2847 C.3     1  UNL1        0.0340
     15 C         141.9675  139.9031  165.5955 C.ar    1  UNL1        0.0135
     16 C         140.9358  140.6542  166.3838 C.ar    1  UNL1        0.1432
     17 O         141.3579  142.0922  166.4481 O.2     1  UNL1       -0.4560
     18 C         142.6504  142.2298  165.6994 C.ar    1  UNL1        0.1447
     19 C         143.5330  143.4122  165.4295 C.ar    1  UNL1        0.0383
     20 C         144.7923  143.2418  164.6326 C.ar    1  UNL1        0.0145
     21 C         145.1690  141.8888  164.1057 C.ar    1  UNL1        0.0579
     22 CL        146.4284  141.7184  163.3088 Cl      1  UNL1       -0.0822
     23 C         144.2865  140.7064  164.3756 C.ar    1  UNL1        0.0142
     24 C         143.0272  140.8769  165.1725 C.ar    1  UNL1        0.0341
     25 C         138.3185  139.5650  164.7674 C.ar    1  UNL1        0.0699
     26 C         138.6389  138.3307  163.9773 C.ar    1  UNL1        0.0176
     27 C         138.4612  138.3265  162.4879 C.ar    1  UNL1        0.0160
     28 C         137.9633  139.5564  161.7884 C.ar    1  UNL1        0.0506
     29 C         137.6429  140.7906  162.5784 C.ar    1  UNL1        0.0160
     30 C         137.8206  140.7949  164.0679 C.ar    1  UNL1        0.0176
     31 N         137.7856  139.5521  160.2990 N.am    1  UNL1       -0.2804
     32 C         138.8697  140.0901  159.4129 C.2     1  UNL1        0.2494
     33 O         140.1315  140.6323  160.0162 O.2     1  UNL1       -0.2698
     34 H         136.9575  139.1962  159.9030 H       1  UNL1        0.1552
     35 C         138.6922  140.0859  157.9234 C.2     1  UNL1        0.0549
     36 C         137.5019  140.7601  157.3080 C.2     1  UNL1       -0.0041
     37 C         137.3245  140.7558  155.8186 C.3     1  UNL1        0.0991
     38 N         135.9490  140.8456  155.2270 N.3     1  UNL1       -0.2665
     39 C         135.7769  141.1949  153.7784 C.3     1  UNL1        0.0899
     40 C         134.7455  140.5861  156.0839 C.3     1  UNL1        0.0899
@<TRIPOS>BOND
     1    14    15    1
     2    15    16   ar
     3    16     1    1
     4     1     2    1
     5     2     3    2
     6     3     4    1
     7     3     5    1
     8     5     6    2
     9     6     7    1
    10     7     8    2
    11     7     9    1
    12     9    10    2
    13    10    11    1
    14    11    25    1
    15    25    26   ar
    16    26    27   ar
    17    27    28   ar
    18    28    31    1
    19    31    32   am
    20    32    33    2
    21    32    35    1
    22    35    36    2
    23    36    37    1
    24    37    38    1
    25    38    39    1
    26    38    40    1
    27    28    29   ar
    28    29    30   ar
    29    16    17   ar
    30    17    18   ar
    31    18    19   ar
    32    19    20   ar
    33    20    21   ar
    34    21    22    1
    35    21    23   ar
    36    23    24   ar
    37    24    15   ar
    38    11     1    1
    39    30    25   ar
    40    24    18   ar
    41     9     2    1
    42     4    12    1
    43     4    13    1
    44    31    34    1
@<TRIPOS>MOLECULE
*****
 40 44 0 0 0
SMALL
GASTEIGER

@<TRIPOS>ATOM
      1 C         140.2777  142.6766  161.9092 C.3     1  UNL1        0.1836
      2 C         139.8449  143.3629  163.1708 C.2     1  UNL1        0.1125
      3 C         139.1492  144.6692  163.4148 C.2     1  UNL1        0.3424
      4 N         138.7631  145.5411  162.2569 N.pl3   1  UNL1       -0.2446
      5 N         138.8395  145.1035  164.8167 N.2     1  UNL1        0.0722
      6 N         139.2255  144.2316  165.9747 N.am    1  UNL1        0.0405
      7 C         139.9212  142.9253  165.7307 C.2     1  UNL1        0.3289
      8 O         140.3072  142.0534  166.8886 O.2     1  UNL1       -0.2626
      9 C         140.2310  142.4910  164.3288 C.2     1  UNL1        0.1626
     10 N         140.9023  141.2657  163.7828 N.2     1  UNL1       -0.1725
     11 N         140.9313  141.3805  162.2875 N.pl3   1  UNL1       -0.2013
     12 H         138.9664  145.2561  161.3368 H       1  UNL1        0.2885
     13 H         138.3065  146.3985  162.4171 H       1  UNL1        0.2885
     14 C         138.4822  141.2805  159.5690 C.3     1  UNL1        0.0340
     15 C         139.2647  142.5536  159.4387 C.ar    1  UNL1        0.0135
     16 C         140.0900  143.1953  160.5144 C.ar    1  UNL1        0.1432
     17 O         140.6946  144.4467  159.9502 O.2     1  UNL1       -0.4560
     18 C         140.2430  144.5785  158.5259 C.ar    1  UNL1        0.1447
     19 C         140.5223  145.6127  157.4760 C.ar    1  UNL1        0.0383
     20 C         139.9179  145.4769  156.1099 C.ar    1  UNL1        0.0145
     21 C         139.0341  144.3068  155.7938 C.ar    1  UNL1        0.0579
     22 CL        138.4296  144.1710  154.4277 Cl      1  UNL1       -0.0822
     23 C         138.7548  143.2726  156.8437 C.ar    1  UNL1        0.0142
     24 C         139.3592  143.4084  158.2097 C.ar    1  UNL1        0.0341
     25 C         141.5118  140.3755  161.3372 C.ar    1  UNL1        0.0699
     26 C         141.0812  138.9403  161.4081 C.ar    1  UNL1        0.0176
     27 C         141.6617  137.9353  160.4578 C.ar    1  UNL1        0.0160
     28 C         142.6728  138.3654  159.4367 C.ar    1  UNL1        0.0506
     29 C         143.1034  139.8005  159.3659 C.ar    1  UNL1        0.0160
     30 C         142.5228  140.8055  160.3161 C.ar    1  UNL1        0.0176
     31 N         143.2533  137.3604  158.4864 N.am    1  UNL1       -0.2804
     32 C         142.4350  136.8581  157.3341 C.2     1  UNL1        0.2494
     33 O         141.0363  137.3607  157.1319 O.2     1  UNL1       -0.2698
     34 H         144.1714  137.0306  158.6191 H       1  UNL1        0.1552
     35 C         143.0155  135.8531  156.3837 C.2     1  UNL1        0.0549
     36 C         143.3473  134.4712  156.8637 C.2     1  UNL1       -0.0041
     37 C         143.9277  133.4663  155.9134 C.3     1  UNL1        0.0991
     38 N         144.6159  132.2434  156.4432 N.3     1  UNL1       -0.2665
     39 C         145.2311  132.2623  157.8111 C.3     1  UNL1        0.0899
     40 C         144.6889  131.0014  155.6052 C.3     1  UNL1        0.0899
@<TRIPOS>BOND
     1    14    15    1
     2    15    16   ar
     3    16     1    1
     4     1     2    1
     5     2     3    2
     6     3     4    1
     7     3     5    1
     8     5     6    2
     9     6     7    1
    10     7     8    2
    11     7     9    1
    12     9    10    2
    13    10    11    1
    14    11    25    1
    15    25    26   ar
    16    26    27   ar
    17    27    28   ar
    18    28    31    1
    19    31    32   am
    20    32    33    2
    21    32    35    1
    22    35    36    2
    23    36    37    1
    24    37    38    1
    25    38    39    1
    26    38    40    1
    27    28    29   ar
    28    29    30   ar
    29    16    17   ar
    30    17    18   ar
    31    18    19   ar
    32    19    20   ar
    33    20    21   ar
    34    21    22    1
    35    21    23   ar
    36    23    24   ar
    37    24    15   ar
    38    11     1    1
    39    30    25   ar
    40    24    18   ar
    41     9     2    1
    42     4    12    1
    43     4    13    1
    44    31    34    1
@<TRIPOS>MOLECULE
*****
 40 44 0 0 0
SMALL
GASTEIGER

@<TRIPOS>ATOM
      1 C         142.2481  140.6594  161.6844 C.3     1  UNL1        0.1836
      2 C         142.5156  140.0972  163.0491 C.2     1  UNL1        0.1125
      3 C         142.5016  138.6931  163.5765 C.2     1  UNL1        0.3424
      4 N         142.1722  137.5512  162.6613 N.pl3   1  UNL1       -0.2446
      5 N         142.8172  138.4307  165.0193 N.2     1  UNL1        0.0722
      6 N         143.1466  139.5725  165.9347 N.am    1  UNL1        0.0405
      7 C         143.1606  140.9766  165.4072 C.2     1  UNL1        0.3289
      8 O         143.4900  142.1184  166.3226 O.2     1  UNL1       -0.2626
      9 C         142.8450  141.2390  163.9645 C.2     1  UNL1        0.1626
     10 N         142.7812  142.5069  163.1655 N.2     1  UNL1       -0.1725
     11 N         142.4123  142.1486  161.7563 N.pl3   1  UNL1       -0.2013
     12 H         141.9651  137.7234  161.7143 H       1  UNL1        0.2885
     13 H         142.1631  136.6297  163.0075 H       1  UNL1        0.2885
     14 C         139.3557  140.6982  160.1739 C.3     1  UNL1        0.0340
     15 C         140.5515  139.8887  159.7681 C.ar    1  UNL1        0.0135
     16 C         141.8810  139.8708  160.4624 C.ar    1  UNL1        0.1432
     17 O         142.7789  138.9259  159.7201 O.2     1  UNL1       -0.4560
     18 C         142.0043  138.3598  158.5670 C.ar    1  UNL1        0.1447
     19 C         142.3747  137.3794  157.4939 C.ar    1  UNL1        0.0383
     20 C         141.3684  136.9940  156.4505 C.ar    1  UNL1        0.0145
     21 C         139.9918  137.5890  156.4801 C.ar    1  UNL1        0.0579
     22 CL        138.9855  137.2035  155.4366 Cl      1  UNL1       -0.0822
     23 C         139.6214  138.5694  157.5532 C.ar    1  UNL1        0.0142
     24 C         140.6277  138.9548  158.5967 C.ar    1  UNL1        0.0341
     25 C         142.2382  143.1108  160.6188 C.ar    1  UNL1        0.0699
     26 C         143.0840  142.9771  159.3872 C.ar    1  UNL1        0.0176
     27 C         142.9098  143.9392  158.2497 C.ar    1  UNL1        0.0160
     28 C         141.8900  145.0351  158.3438 C.ar    1  UNL1        0.0506
     29 C         141.0442  145.1688  159.5753 C.ar    1  UNL1        0.0160
     30 C         141.2184  144.2067  160.7128 C.ar    1  UNL1        0.0176
     31 N         141.7158  145.9973  157.2063 N.am    1  UNL1       -0.2804
     32 C         140.7089  145.7134  156.1313 C.2     1  UNL1        0.2494
     33 O         139.8762  144.4673  156.1938 O.2     1  UNL1       -0.2698
     34 H         142.2624  146.8151  157.1652 H       1  UNL1        0.1552
     35 C         140.5347  146.6755  154.9938 C.2     1  UNL1        0.0549
     36 C         139.7629  147.9455  155.1970 C.2     1  UNL1       -0.0041
     37 C         139.5888  148.9076  154.0594 C.3     1  UNL1        0.0991
     38 N         139.1967  150.3293  154.3330 N.3     1  UNL1       -0.2665
     39 C         138.6009  150.7012  155.6584 C.3     1  UNL1        0.0899
     40 C         139.4004  151.3792  153.2812 C.3     1  UNL1        0.0899
@<TRIPOS>BOND
     1    14    15    1
     2    15    16   ar
     3    16     1    1
     4     1     2    1
     5     2     3    2
     6     3     4    1
     7     3     5    1
     8     5     6    2
     9     6     7    1
    10     7     8    2
    11     7     9    1
    12     9    10    2
    13    10    11    1
    14    11    25    1
    15    25    26   ar
    16    26    27   ar
    17    27    28   ar
    18    28    31    1
    19    31    32   am
    20    32    33    2
    21    32    35    1
    22    35    36    2
    23    36    37    1
    24    37    38    1
    25    38    39    1
    26    38    40    1
    27    28    29   ar
    28    29    30   ar
    29    16    17   ar
    30    17    18   ar
    31    18    19   ar
    32    19    20   ar
    33    20    21   ar
    34    21    22    1
    35    21    23   ar
    36    23    24   ar
    37    24    15   ar
    38    11     1    1
    39    30    25   ar
    40    24    18   ar
    41     9     2    1
    42     4    12    1
    43     4    13    1
    44    31    34    1
@<TRIPOS>MOLECULE
*****
 40 44 0 0 0
SMALL
GASTEIGER

@<TRIPOS>ATOM
      1 C         143.1525  141.9096  160.3401 C.3     1  UNL1        0.1836
      2 C         143.6730  142.2814  161.6968 C.2     1  UNL1        0.1125
      3 C         143.6709  143.5774  162.4521 C.2     1  UNL1        0.3424
      4 N         143.0615  144.8026  161.8376 N.pl3   1  UNL1       -0.2446
      5 N         144.2781  143.6482  163.8218 N.2     1  UNL1        0.0722
      6 N         144.8875  142.4231  164.4363 N.am    1  UNL1        0.0405
      7 C         144.8897  141.1271  163.6811 C.2     1  UNL1        0.3289
      8 O         145.4991  139.9019  164.2956 O.2     1  UNL1       -0.2626
      9 C         144.2824  141.0563  162.3114 C.2     1  UNL1        0.1626
     10 N         144.1385  139.9272  161.3344 N.2     1  UNL1       -0.1725
     11 N         143.4401  140.4546  160.1161 N.pl3   1  UNL1       -0.2013
     12 H         142.6629  144.7562  160.9386 H       1  UNL1        0.2885
     13 H         143.0601  145.6532  162.3334 H       1  UNL1        0.2885
     14 C         140.0888  141.6125  159.2559 C.3     1  UNL1        0.0340
     15 C         141.0568  142.6944  158.8782 C.ar    1  UNL1        0.0135
     16 C         142.4649  142.8309  159.3766 C.ar    1  UNL1        0.1432
     17 O         143.0649  144.0506  158.7422 O.2     1  UNL1       -0.4560
     18 C         142.0275  144.6679  157.8518 C.ar    1  UNL1        0.1447
     19 C         142.0527  145.8849  156.9753 C.ar    1  UNL1        0.0383
     20 C         140.8367  146.2637  156.1829 C.ar    1  UNL1        0.0145
     21 C         139.5956  145.4255  156.2670 C.ar    1  UNL1        0.0579
     22 CL        138.3796  145.8043  155.4746 Cl      1  UNL1       -0.0822
     23 C         139.5704  144.2085  157.1435 C.ar    1  UNL1        0.0142
     24 C         140.7864  143.8297  157.9359 C.ar    1  UNL1        0.0341
     25 C         143.0908  139.6654  158.8892 C.ar    1  UNL1        0.0699
     26 C         143.7201  140.0095  157.5717 C.ar    1  UNL1        0.0176
     27 C         143.3707  139.2204  156.3449 C.ar    1  UNL1        0.0160
     28 C         142.3921  138.0872  156.4354 C.ar    1  UNL1        0.0506
     29 C         141.7629  137.7431  157.7528 C.ar    1  UNL1        0.0160
     30 C         142.1123  138.5322  158.9797 C.ar    1  UNL1        0.0176
     31 N         142.0428  137.2980  155.2085 N.am    1  UNL1       -0.2804
     32 C         142.7035  135.9757  154.9541 C.2     1  UNL1        0.2494
     33 O         143.7135  135.4424  155.9265 O.2     1  UNL1       -0.2698
     34 H         141.3799  137.6480  154.5703 H       1  UNL1        0.1552
     35 C         142.3542  135.1864  153.7272 C.2     1  UNL1        0.0549
     36 C         142.3598  133.6872  153.7730 C.2     1  UNL1       -0.0041
     37 C         142.0105  132.8980  152.5461 C.3     1  UNL1        0.0991
     38 N         142.2332  131.4149  152.5198 N.3     1  UNL1       -0.2665
     39 C         143.5671  130.8498  152.9089 C.3     1  UNL1        0.0899
     40 C         141.1221  130.4969  152.1043 C.3     1  UNL1        0.0899
@<TRIPOS>BOND
     1    14    15    1
     2    15    16   ar
     3    16     1    1
     4     1     2    1
     5     2     3    2
     6     3     4    1
     7     3     5    1
     8     5     6    2
     9     6     7    1
    10     7     8    2
    11     7     9    1
    12     9    10    2
    13    10    11    1
    14    11    25    1
    15    25    26   ar
    16    26    27   ar
    17    27    28   ar
    18    28    31    1
    19    31    32   am
    20    32    33    2
    21    32    35    1
    22    35    36    2
    23    36    37    1
    24    37    38    1
    25    38    39    1
    26    38    40    1
    27    28    29   ar
    28    29    30   ar
    29    16    17   ar
    30    17    18   ar
    31    18    19   ar
    32    19    20   ar
    33    20    21   ar
    34    21    22    1
    35    21    23   ar
    36    23    24   ar
    37    24    15   ar
    38    11     1    1
    39    30    25   ar
    40    24    18   ar
    41     9     2    1
    42     4    12    1
    43     4    13    1
    44    31    34    1
@<TRIPOS>MOLECULE
*****
 40 44 0 0 0
SMALL
GASTEIGER

@<TRIPOS>ATOM
      1 C         141.6510  141.3156  158.9705 C.3     1  UNL1        0.1836
      2 C         141.7673  142.8108  158.9423 C.2     1  UNL1        0.1125
      3 C         141.6697  143.8456  160.0238 C.2     1  UNL1        0.3424
      4 N         141.4094  143.4276  161.4407 N.pl3   1  UNL1       -0.2446
      5 N         141.8325  145.2986  159.6884 N.2     1  UNL1        0.0722
      6 N         142.0929  145.7167  158.2716 N.am    1  UNL1        0.0405
      7 C         142.1904  144.6819  157.1901 C.2     1  UNL1        0.3289
      8 O         142.4508  145.1000  155.7733 O.2     1  UNL1       -0.2626
      9 C         142.0276  143.2289  157.5255 C.2     1  UNL1        0.1626
     10 N         142.0722  141.9921  156.6780 N.2     1  UNL1       -0.1725
     11 N         141.8394  140.8096  157.5711 N.pl3   1  UNL1       -0.2013
     12 H         141.3025  142.4740  161.6608 H       1  UNL1        0.2885
     13 H         141.3454  144.1069  162.1505 H       1  UNL1        0.2885
     14 C         138.7613  140.8847  160.4244 C.3     1  UNL1        0.0340
     15 C         140.0635  140.2761  160.8532 C.ar    1  UNL1        0.0135
     16 C         141.3917  140.4741  160.1849 C.ar    1  UNL1        0.1432
     17 O         142.4152  139.6830  160.9442 O.2     1  UNL1       -0.4560
     18 C         141.7195  138.9960  162.0818 C.ar    1  UNL1        0.1447
     19 C         142.2217  138.0840  163.1616 C.ar    1  UNL1        0.0383
     20 C         141.2705  137.5385  164.1851 C.ar    1  UNL1        0.0145
     21 C         139.8171  137.9051  164.1288 C.ar    1  UNL1        0.0579
     22 CL        138.8658  137.3596  165.1524 Cl      1  UNL1       -0.0822
     23 C         139.3149  138.8171  163.0490 C.ar    1  UNL1        0.0142
     24 C         140.2661  139.3625  162.0255 C.ar    1  UNL1        0.0341
     25 C         141.8018  139.3733  157.1403 C.ar    1  UNL1        0.0699
     26 C         140.5194  138.5992  157.2219 C.ar    1  UNL1        0.0176
     27 C         140.4818  137.1629  156.7911 C.ar    1  UNL1        0.0160
     28 C         141.7263  136.5006  156.2787 C.ar    1  UNL1        0.0506
     29 C         143.0085  137.2747  156.1972 C.ar    1  UNL1        0.0160
     30 C         143.0462  138.7110  156.6279 C.ar    1  UNL1        0.0176
     31 N         141.6886  135.0643  155.8479 N.am    1  UNL1       -0.2804
     32 C         142.5179  134.0432  156.5687 C.2     1  UNL1        0.2494
     33 O         143.3848  134.4583  157.7203 O.2     1  UNL1       -0.2698
     34 H         141.1196  134.7918  155.0921 H       1  UNL1        0.1552
     35 C         142.4803  132.6068  156.1380 C.2     1  UNL1        0.0549
     36 C         143.0591  131.5430  157.0230 C.2     1  UNL1       -0.0041
     37 C         143.0214  130.1066  156.5922 C.3     1  UNL1        0.0991
     38 N         143.8340  129.0819  157.3267 N.3     1  UNL1       -0.2665
     39 C         144.7131  128.1349  156.5647 C.3     1  UNL1        0.0899
     40 C         143.7676  129.0040  158.8232 C.3     1  UNL1        0.0899
@<TRIPOS>BOND
     1    14    15    1
     2    15    16   ar
     3    16     1    1
     4     1     2    1
     5     2     3    2
     6     3     4    1
     7     3     5    1
     8     5     6    2
     9     6     7    1
    10     7     8    2
    11     7     9    1
    12     9    10    2
    13    10    11    1
    14    11    25    1
    15    25    26   ar
    16    26    27   ar
    17    27    28   ar
    18    28    31    1
    19    31    32   am
    20    32    33    2
    21    32    35    1
    22    35    36    2
    23    36    37    1
    24    37    38    1
    25    38    39    1
    26    38    40    1
    27    28    29   ar
    28    29    30   ar
    29    16    17   ar
    30    17    18   ar
    31    18    19   ar
    32    19    20   ar
    33    20    21   ar
    34    21    22    1
    35    21    23   ar
    36    23    24   ar
    37    24    15   ar
    38    11     1    1
    39    30    25   ar
    40    24    18   ar
    41     9     2    1
    42     4    12    1
    43     4    13    1
    44    31    34    1
