@<TRIPOS>MOLECULE
*****
 35 37 0 0 0
SMALL
GASTEIGER

@<TRIPOS>ATOM
      1 C         143.0012  140.3781  165.4141 C.2     1  UNL1        0.2521
      2 O         144.0161  139.2746  165.3674 O.2     1  UNL1       -0.2698
      3 N         142.7317  141.2015  164.1896 N.am    1  UNL1       -0.2725
      4 C         141.7167  142.3050  164.2362 C.3     1  UNL1        0.1151
      5 C         141.4472  143.1284  163.0117 C.3     1  UNL1        0.1124
      6 N         142.1927  142.8482  161.7405 N.pl3   1  UNL1       -0.3016
      7 C         143.2076  141.7447  161.6939 C.3     1  UNL1        0.1124
      8 C         143.4771  140.9213  162.9184 C.3     1  UNL1        0.1151
      9 C         140.9177  140.0242  166.9254 C.ar    1  UNL1        0.1432
     10 C         140.1723  140.3044  168.1965 C.ar    1  UNL1        0.0384
     11 C         140.7649  141.2186  169.2275 C.ar    1  UNL1        0.0215
     12 C         142.1029  141.8527  168.9874 C.ar    1  UNL1        0.1061
     13 C         142.8483  141.5725  167.7163 C.ar    1  UNL1        0.0259
     14 C         142.2557  140.6582  166.6853 C.ar    1  UNL1        0.0887
     15 S         142.6955  142.7669  170.0185 S.O2    1  UNL1        0.0105
     16 C         143.2881  143.6811  171.0495 C.3     1  UNL1        0.1816
     17 O         144.0117  142.7236  169.3003 O.2     1  UNL1       -0.1686
     18 O         141.3793  142.8101  170.7366 O.2     1  UNL1       -0.1686
     19 O         140.3251  139.1100  165.8943 O.3     1  UNL1       -0.4702
     20 C         138.1047  140.0905  164.9680 C.3     1  UNL1        0.0566
     21 C         138.8362  139.0272  165.7324 C.3     1  UNL1        0.2599
     22 C         138.0788  137.8810  166.3348 C.3     1  UNL1        0.4340
     23 F         137.3214  136.7350  166.9372 F       1  UNL1       -0.1664
     24 F         138.8306  136.9236  165.4584 F       1  UNL1       -0.1664
     25 F         137.3270  138.8385  167.2111 F       1  UNL1       -0.1664
     26 C         141.9232  143.6716  160.5160 C.ar    1  UNL1        0.0868
     27 C         140.7091  144.5506  160.4555 C.ar    1  UNL1        0.1165
     28 N         140.4396  145.3739  159.2310 N.ar    1  UNL1       -0.2205
     29 C         141.3841  145.3183  158.0670 C.ar    1  UNL1        0.2352
     30 N         142.5981  144.4393  158.1275 N.ar    1  UNL1       -0.2205
     31 C         142.8676  143.6160  159.3520 C.ar    1  UNL1        0.1165
     32 C         141.1146  146.1417  156.8425 C.3     1  UNL1        0.4523
     33 F         140.8451  146.9650  155.6180 F       1  UNL1       -0.1632
     34 F         142.3483  145.5844  156.1963 F       1  UNL1       -0.1632
     35 F         139.8810  146.6989  157.4887 F       1  UNL1       -0.1632
@<TRIPOS>BOND
     1    20    21    1
     2    21    19    1
     3    19     9    1
     4     9    10   ar
     5    10    11   ar
     6    11    12   ar
     7    12    15    1
     8    15    16    1
     9    15    17    2
    10    15    18    2
    11    12    13   ar
    12    13    14   ar
    13    14     1    1
    14     1     2    2
    15     1     3   am
    16     3     4    1
    17     4     5    1
    18     5     6    1
    19     6    26    1
    20    26    27   ar
    21    27    28   ar
    22    28    29   ar
    23    29    32    1
    24    32    33    1
    25    32    34    1
    26    32    35    1
    27    29    30   ar
    28    30    31   ar
    29     6     7    1
    30     7     8    1
    31    21    22    1
    32    22    23    1
    33    22    24    1
    34    22    25    1
    35    14     9   ar
    36     8     3    1
    37    31    26   ar
@<TRIPOS>MOLECULE
*****
 35 37 0 0 0
SMALL
GASTEIGER

@<TRIPOS>ATOM
      1 C         139.2017  142.2626  164.5076 C.2     1  UNL1        0.2521
      2 O         137.9384  143.0534  164.3390 O.2     1  UNL1       -0.2698
      3 N         140.1503  142.1098  163.3557 N.am    1  UNL1       -0.2725
      4 C         141.4137  141.3189  163.5243 C.3     1  UNL1        0.1151
      5 C         142.3622  141.1660  162.3724 C.3     1  UNL1        0.1124
      6 N         142.0473  141.8041  161.0519 N.pl3   1  UNL1       -0.3016
      7 C         140.7840  142.5950  160.8833 C.3     1  UNL1        0.1124
      8 C         139.8355  142.7478  162.0352 C.3     1  UNL1        0.1151
      9 C         138.9815  140.2604  166.1486 C.ar    1  UNL1        0.1432
     10 C         139.2963  139.6224  167.4691 C.ar    1  UNL1        0.0384
     11 C         140.1463  140.3485  168.4692 C.ar    1  UNL1        0.0215
     12 C         140.6815  141.7126  168.1488 C.ar    1  UNL1        0.1061
     13 C         140.3666  142.3506  166.8283 C.ar    1  UNL1        0.0259
     14 C         139.5166  141.6245  165.8282 C.ar    1  UNL1        0.0887
     15 S         141.5315  142.4388  169.1489 S.O2    1  UNL1        0.0105
     16 C         142.3815  143.1649  170.1490 C.3     1  UNL1        0.1816
     17 O         140.4919  143.5153  169.2509 O.2     1  UNL1       -0.1686
     18 O         142.5711  141.3623  169.0469 O.2     1  UNL1       -0.1686
     19 O         138.1314  139.5342  165.1485 O.3     1  UNL1       -0.4702
     20 C         138.4126  138.9047  162.6436 C.3     1  UNL1        0.0566
     21 C         138.7759  138.6967  164.0840 C.3     1  UNL1        0.2599
     22 C         139.7837  137.6511  164.4598 C.3     1  UNL1        0.4340
     23 F         140.7915  136.6057  164.8357 F       1  UNL1       -0.1664
     24 F         138.8086  137.0620  165.4356 F       1  UNL1       -0.1664
     25 F         140.7588  138.2403  163.4841 F       1  UNL1       -0.1664
     26 C         142.9959  141.6513  159.8999 C.ar    1  UNL1        0.0868
     27 C         143.2640  140.2922  159.3244 C.ar    1  UNL1        0.1165
     28 N         144.2126  140.1394  158.1725 N.ar    1  UNL1       -0.2205
     29 C         144.8930  141.3456  157.5961 C.ar    1  UNL1        0.2352
     30 N         144.6248  142.7046  158.1716 N.ar    1  UNL1       -0.2205
     31 C         143.6763  142.8574  159.3235 C.ar    1  UNL1        0.1165
     32 C         145.8415  141.1928  156.4442 C.3     1  UNL1        0.4523
     33 F         146.7901  141.0400  155.2923 F       1  UNL1       -0.1632
     34 F         146.4688  142.5118  156.7858 F       1  UNL1       -0.1632
     35 F         145.2142  139.8738  156.1026 F       1  UNL1       -0.1632
@<TRIPOS>BOND
     1    20    21    1
     2    21    19    1
     3    19     9    1
     4     9    10   ar
     5    10    11   ar
     6    11    12   ar
     7    12    15    1
     8    15    16    1
     9    15    17    2
    10    15    18    2
    11    12    13   ar
    12    13    14   ar
    13    14     1    1
    14     1     2    2
    15     1     3   am
    16     3     4    1
    17     4     5    1
    18     5     6    1
    19     6    26    1
    20    26    27   ar
    21    27    28   ar
    22    28    29   ar
    23    29    32    1
    24    32    33    1
    25    32    34    1
    26    32    35    1
    27    29    30   ar
    28    30    31   ar
    29     6     7    1
    30     7     8    1
    31    21    22    1
    32    22    23    1
    33    22    24    1
    34    22    25    1
    35    14     9   ar
    36     8     3    1
    37    31    26   ar
@<TRIPOS>MOLECULE
*****
 35 37 0 0 0
SMALL
GASTEIGER

@<TRIPOS>ATOM
      1 C         139.7868  139.5986  165.0668 C.2     1  UNL1        0.2521
      2 O         138.8593  138.4225  164.9859 O.2     1  UNL1       -0.2698
      3 N         139.9301  140.5228  163.8940 N.am    1  UNL1       -0.2725
      4 C         140.8576  141.6989  163.9749 C.3     1  UNL1        0.1151
      5 C         141.0009  142.6231  162.8022 C.3     1  UNL1        0.1124
      6 N         140.2167  142.3711  161.5485 N.pl3   1  UNL1       -0.3016
      7 C         139.2892  141.1950  161.4676 C.3     1  UNL1        0.1124
      8 C         139.1459  140.2709  162.6404 C.3     1  UNL1        0.1151
      9 C         141.8817  139.1543  166.5379 C.ar    1  UNL1        0.1432
     10 C         142.6658  139.4063  167.7915 C.ar    1  UNL1        0.0384
     11 C         142.1392  140.3545  168.8277 C.ar    1  UNL1        0.0215
     12 C         140.8285  141.0507  168.6102 C.ar    1  UNL1        0.1061
     13 C         140.0444  140.7987  167.3566 C.ar    1  UNL1        0.0259
     14 C         140.5710  139.8505  166.3204 C.ar    1  UNL1        0.0887
     15 S         140.3019  141.9988  169.6464 S.O2    1  UNL1        0.0105
     16 C         139.7753  142.9470  170.6826 C.3     1  UNL1        0.1816
     17 O         139.9551  140.8387  170.5317 O.2     1  UNL1       -0.1686
     18 O         140.6488  143.1590  168.7611 O.2     1  UNL1       -0.1686
     19 O         142.4082  138.2062  165.5017 O.3     1  UNL1       -0.4702
     20 C         142.5922  138.4175  162.9188 C.3     1  UNL1        0.0566
     21 C         143.1132  138.7368  164.2887 C.3     1  UNL1        0.2599
     22 C         144.3392  139.5868  164.4455 C.3     1  UNL1        0.4340
     23 F         145.5651  140.4367  164.6023 F       1  UNL1       -0.1664
     24 F         144.8855  138.6139  165.4480 F       1  UNL1       -0.1664
     25 F         143.7929  140.5597  163.4431 F       1  UNL1       -0.1664
     26 C         140.3600  143.2953  160.3758 C.ar    1  UNL1        0.0868
     27 C         141.3617  144.4111  160.4182 C.ar    1  UNL1        0.1165
     28 N         141.5050  145.3353  159.2455 N.ar    1  UNL1       -0.2205
     29 C         140.6466  145.1437  158.0303 C.ar    1  UNL1        0.2352
     30 N         139.6450  144.0280  157.9879 N.ar    1  UNL1       -0.2205
     31 C         139.5017  143.1038  159.1607 C.ar    1  UNL1        0.1165
     32 C         140.7899  146.0679  156.8575 C.3     1  UNL1        0.4523
     33 F         140.9332  146.9921  155.6848 F       1  UNL1       -0.1632
     34 F         142.2215  146.3176  157.2293 F       1  UNL1       -0.1632
     35 F         139.3583  145.8182  156.4858 F       1  UNL1       -0.1632
@<TRIPOS>BOND
     1    20    21    1
     2    21    19    1
     3    19     9    1
     4     9    10   ar
     5    10    11   ar
     6    11    12   ar
     7    12    15    1
     8    15    16    1
     9    15    17    2
    10    15    18    2
    11    12    13   ar
    12    13    14   ar
    13    14     1    1
    14     1     2    2
    15     1     3   am
    16     3     4    1
    17     4     5    1
    18     5     6    1
    19     6    26    1
    20    26    27   ar
    21    27    28   ar
    22    28    29   ar
    23    29    32    1
    24    32    33    1
    25    32    34    1
    26    32    35    1
    27    29    30   ar
    28    30    31   ar
    29     6     7    1
    30     7     8    1
    31    21    22    1
    32    22    23    1
    33    22    24    1
    34    22    25    1
    35    14     9   ar
    36     8     3    1
    37    31    26   ar
@<TRIPOS>MOLECULE
*****
 35 37 0 0 0
SMALL
GASTEIGER

@<TRIPOS>ATOM
      1 C         141.9171  140.3991  163.1404 C.2     1  UNL1        0.2521
      2 O         143.0270  140.0767  164.0965 O.2     1  UNL1       -0.2698
      3 N         141.8471  139.7067  161.8116 N.am    1  UNL1       -0.2725
      4 C         140.7371  140.0291  160.8555 C.3     1  UNL1        0.1151
      5 C         140.6671  139.3368  159.5267 C.3     1  UNL1        0.1124
      6 N         141.7071  138.3221  159.1539 N.pl3   1  UNL1       -0.3016
      7 C         142.8170  137.9998  160.1100 C.3     1  UNL1        0.1124
      8 C         142.8870  138.6921  161.4388 C.3     1  UNL1        0.1151
      9 C         139.8949  141.1142  164.6066 C.ar    1  UNL1        0.1432
     10 C         138.8550  142.1289  164.9792 C.ar    1  UNL1        0.0384
     11 C         138.7972  143.4431  164.2585 C.ar    1  UNL1        0.0215
     12 C         139.7793  143.7427  163.1650 C.ar    1  UNL1        0.1061
     13 C         140.8193  142.7280  162.7924 C.ar    1  UNL1        0.0259
     14 C         140.8771  141.4138  163.5131 C.ar    1  UNL1        0.0887
     15 S         139.7216  145.0569  162.4443 S.O2    1  UNL1        0.0105
     16 C         139.6638  146.3711  161.7235 C.3     1  UNL1        0.1816
     17 O         138.2241  144.9747  162.4144 O.2     1  UNL1       -0.1686
     18 O         141.2190  145.1391  162.4741 O.2     1  UNL1       -0.1686
     19 O         139.9527  139.8000  165.3273 O.3     1  UNL1       -0.4702
     20 C         138.8381  138.2514  163.5640 C.3     1  UNL1        0.0566
     21 C         138.9776  138.7130  164.9844 C.3     1  UNL1        0.2599
     22 C         138.1421  138.0876  166.0618 C.3     1  UNL1        0.4340
     23 F         137.3065  137.4623  167.1392 F       1  UNL1       -0.1664
     24 F         138.5563  136.7247  165.5921 F       1  UNL1       -0.1664
     25 F         137.7278  139.4506  166.5316 F       1  UNL1       -0.1664
     26 C         141.6371  137.6298  157.8251 C.ar    1  UNL1        0.0868
     27 C         142.8298  136.8839  157.3042 C.ar    1  UNL1        0.1165
     28 N         142.7598  136.1916  155.9754 N.ar    1  UNL1       -0.2205
     29 C         141.4971  136.2451  155.1674 C.ar    1  UNL1        0.2352
     30 N         140.3044  136.9909  155.6883 N.ar    1  UNL1       -0.2205
     31 C         140.3744  137.6832  157.0171 C.ar    1  UNL1        0.1165
     32 C         141.4271  135.5528  153.8386 C.3     1  UNL1        0.4523
     33 F         141.3571  134.8604  152.5098 F       1  UNL1       -0.1632
     34 F         142.8575  135.1258  153.9857 F       1  UNL1       -0.1632
     35 F         139.9967  135.9797  153.6915 F       1  UNL1       -0.1632
@<TRIPOS>BOND
     1    20    21    1
     2    21    19    1
     3    19     9    1
     4     9    10   ar
     5    10    11   ar
     6    11    12   ar
     7    12    15    1
     8    15    16    1
     9    15    17    2
    10    15    18    2
    11    12    13   ar
    12    13    14   ar
    13    14     1    1
    14     1     2    2
    15     1     3   am
    16     3     4    1
    17     4     5    1
    18     5     6    1
    19     6    26    1
    20    26    27   ar
    21    27    28   ar
    22    28    29   ar
    23    29    32    1
    24    32    33    1
    25    32    34    1
    26    32    35    1
    27    29    30   ar
    28    30    31   ar
    29     6     7    1
    30     7     8    1
    31    21    22    1
    32    22    23    1
    33    22    24    1
    34    22    25    1
    35    14     9   ar
    36     8     3    1
    37    31    26   ar
@<TRIPOS>MOLECULE
*****
 35 37 0 0 0
SMALL
GASTEIGER

@<TRIPOS>ATOM
      1 C         139.2286  140.2847  164.3854 C.2     1  UNL1        0.2521
      2 O         137.7737  140.2292  164.7461 O.2     1  UNL1       -0.2698
      3 N         139.6958  139.7419  163.0675 N.am    1  UNL1       -0.2725
      4 C         141.1508  139.7974  162.7068 C.3     1  UNL1        0.1151
      5 C         141.6181  139.2546  161.3888 C.3     1  UNL1        0.1124
      6 N         140.6303  138.6562  160.4315 N.pl3   1  UNL1       -0.3016
      7 C         139.1754  138.6007  160.7922 C.3     1  UNL1        0.1124
      8 C         138.7082  139.1435  162.1102 C.3     1  UNL1        0.1151
      9 C         140.7874  142.2445  165.0778 C.ar    1  UNL1        0.1432
     10 C         141.7751  142.8428  166.0351 C.ar    1  UNL1        0.0384
     11 C         142.1918  142.0796  167.2573 C.ar    1  UNL1        0.0215
     12 C         141.6208  140.7181  167.5223 C.ar    1  UNL1        0.1061
     13 C         140.6331  140.1198  166.5650 C.ar    1  UNL1        0.0259
     14 C         140.2164  140.8830  165.3428 C.ar    1  UNL1        0.0887
     15 S         142.0375  139.9549  168.7445 S.O2    1  UNL1        0.0105
     16 C         142.4542  139.1917  169.9668 C.3     1  UNL1        0.1816
     17 O         142.9750  139.1323  167.9112 O.2     1  UNL1       -0.1686
     18 O         141.1000  140.7775  169.5778 O.2     1  UNL1       -0.1686
     19 O         140.3707  143.0077  163.8556 O.3     1  UNL1       -0.4702
     20 C         138.1035  143.4040  162.6504 C.3     1  UNL1        0.0566
     21 C         139.0239  143.6661  163.8054 C.3     1  UNL1        0.2599
     22 C         138.5974  144.5867  164.9103 C.3     1  UNL1        0.4340
     23 F         138.1710  145.5072  166.0152 F       1  UNL1       -0.1664
     24 F         137.3414  143.7872  165.0918 F       1  UNL1       -0.1664
     25 F         139.8535  145.3862  164.7289 F       1  UNL1       -0.1664
     26 C         141.0975  138.1134  159.1136 C.ar    1  UNL1        0.0868
     27 C         140.1391  138.0053  157.9647 C.ar    1  UNL1        0.1165
     28 N         140.6063  137.4625  156.6467 N.ar    1  UNL1       -0.2205
     29 C         142.0320  137.0278  156.4776 C.ar    1  UNL1        0.2352
     30 N         142.9904  137.1359  157.6264 N.ar    1  UNL1       -0.2205
     31 C         142.5231  137.6787  158.9444 C.ar    1  UNL1        0.1165
     32 C         142.4992  136.4850  155.1597 C.3     1  UNL1        0.4523
     33 F         142.9665  135.9421  153.8417 F       1  UNL1       -0.1632
     34 F         143.9091  136.4567  155.6711 F       1  UNL1       -0.1632
     35 F         141.0894  136.5132  154.6482 F       1  UNL1       -0.1632
@<TRIPOS>BOND
     1    20    21    1
     2    21    19    1
     3    19     9    1
     4     9    10   ar
     5    10    11   ar
     6    11    12   ar
     7    12    15    1
     8    15    16    1
     9    15    17    2
    10    15    18    2
    11    12    13   ar
    12    13    14   ar
    13    14     1    1
    14     1     2    2
    15     1     3   am
    16     3     4    1
    17     4     5    1
    18     5     6    1
    19     6    26    1
    20    26    27   ar
    21    27    28   ar
    22    28    29   ar
    23    29    32    1
    24    32    33    1
    25    32    34    1
    26    32    35    1
    27    29    30   ar
    28    30    31   ar
    29     6     7    1
    30     7     8    1
    31    21    22    1
    32    22    23    1
    33    22    24    1
    34    22    25    1
    35    14     9   ar
    36     8     3    1
    37    31    26   ar
@<TRIPOS>MOLECULE
*****
 35 37 0 0 0
SMALL
GASTEIGER

@<TRIPOS>ATOM
      1 C         140.0130  139.8832  164.3016 C.2     1  UNL1        0.2521
      2 O         138.8179  138.9921  164.1360 O.2     1  UNL1       -0.2698
      3 N         140.9057  140.1661  163.1298 N.am    1  UNL1       -0.2725
      4 C         142.1009  141.0573  163.2954 C.3     1  UNL1        0.1151
      5 C         142.9937  141.3401  162.1236 C.3     1  UNL1        0.1124
      6 N         142.6912  140.7318  160.7863 N.pl3   1  UNL1       -0.3016
      7 C         141.4960  139.8407  160.6207 C.3     1  UNL1        0.1124
      8 C         140.6033  139.5578  161.7925 C.3     1  UNL1        0.1151
      9 C         139.9227  141.9110  165.9234 C.ar    1  UNL1        0.1432
     10 C         140.2252  142.5192  167.2607 C.ar    1  UNL1        0.0384
     11 C         140.9205  141.7081  168.3136 C.ar    1  UNL1        0.0215
     12 C         141.3132  140.2886  168.0292 C.ar    1  UNL1        0.1061
     13 C         141.0108  139.6804  166.6919 C.ar    1  UNL1        0.0259
     14 C         140.3155  140.4916  165.6389 C.ar    1  UNL1        0.0887
     15 S         142.0085  139.4775  169.0821 S.O2    1  UNL1        0.0105
     16 C         142.7038  138.6663  170.1350 C.3     1  UNL1        0.1816
     17 O         143.1061  139.1578  168.1110 O.2     1  UNL1       -0.1686
     18 O         140.9109  139.7972  170.0532 O.2     1  UNL1       -0.1686
     19 O         139.2275  142.7221  164.8704 O.3     1  UNL1       -0.4702
     20 C         138.5337  145.0699  165.7404 C.3     1  UNL1        0.0566
     21 C         139.3831  144.2138  164.8484 C.3     1  UNL1        0.2599
     22 C         140.3883  144.8496  163.9343 C.3     1  UNL1        0.4340
     23 F         141.3934  145.4854  163.0203 F       1  UNL1       -0.1664
     24 F         139.2750  145.4370  163.1186 F       1  UNL1       -0.1664
     25 F         141.5016  144.2622  164.7500 F       1  UNL1       -0.1664
     26 C         143.5839  141.0147  159.6145 C.ar    1  UNL1        0.0868
     27 C         144.2775  142.3400  159.5027 C.ar    1  UNL1        0.1165
     28 N         145.1702  142.6229  158.3310 N.ar    1  UNL1       -0.2205
     29 C         145.3693  141.5804  157.2710 C.ar    1  UNL1        0.2352
     30 N         144.6758  140.2551  157.3828 N.ar    1  UNL1       -0.2205
     31 C         143.7831  139.9722  158.5545 C.ar    1  UNL1        0.1165
     32 C         146.2621  141.8632  156.0992 C.3     1  UNL1        0.4523
     33 F         147.1548  142.1461  154.9274 F       1  UNL1       -0.1632
     34 F         147.0444  142.8366  156.9302 F       1  UNL1       -0.1632
     35 F         145.4798  140.8898  155.2682 F       1  UNL1       -0.1632
@<TRIPOS>BOND
     1    20    21    1
     2    21    19    1
     3    19     9    1
     4     9    10   ar
     5    10    11   ar
     6    11    12   ar
     7    12    15    1
     8    15    16    1
     9    15    17    2
    10    15    18    2
    11    12    13   ar
    12    13    14   ar
    13    14     1    1
    14     1     2    2
    15     1     3   am
    16     3     4    1
    17     4     5    1
    18     5     6    1
    19     6    26    1
    20    26    27   ar
    21    27    28   ar
    22    28    29   ar
    23    29    32    1
    24    32    33    1
    25    32    34    1
    26    32    35    1
    27    29    30   ar
    28    30    31   ar
    29     6     7    1
    30     7     8    1
    31    21    22    1
    32    22    23    1
    33    22    24    1
    34    22    25    1
    35    14     9   ar
    36     8     3    1
    37    31    26   ar
@<TRIPOS>MOLECULE
*****
 35 37 0 0 0
SMALL
GASTEIGER

@<TRIPOS>ATOM
      1 C         142.3223  140.0045  164.9210 C.2     1  UNL1        0.2521
      2 O         143.2541  138.8346  164.8065 O.2     1  UNL1       -0.2698
      3 N         142.1038  140.9073  163.7432 N.am    1  UNL1       -0.2725
      4 C         141.1720  142.0772  163.8577 C.3     1  UNL1        0.1151
      5 C         140.9535  142.9801  162.6800 C.3     1  UNL1        0.1124
      6 N         141.6668  142.7131  161.3877 N.pl3   1  UNL1       -0.3016
      7 C         142.5986  141.5432  161.2732 C.3     1  UNL1        0.1124
      8 C         142.8171  140.6403  162.4510 C.3     1  UNL1        0.1151
      9 C         140.2813  139.6281  166.4839 C.ar    1  UNL1        0.1432
     10 C         139.5680  139.8952  167.7761 C.ar    1  UNL1        0.0384
     11 C         140.1824  140.8056  168.7977 C.ar    1  UNL1        0.0215
     12 C         141.5101  141.4490  168.5270 C.ar    1  UNL1        0.1061
     13 C         142.2234  141.1820  167.2348 C.ar    1  UNL1        0.0259
     14 C         141.6090  140.2715  166.2132 C.ar    1  UNL1        0.0887
     15 S         142.1245  142.3595  169.5486 S.O2    1  UNL1        0.0105
     16 C         142.7389  143.2699  170.5702 C.3     1  UNL1        0.1816
     17 O         140.8154  142.4244  170.2780 O.2     1  UNL1       -0.1686
     18 O         143.4336  142.2945  168.8192 O.2     1  UNL1       -0.1686
     19 O         139.6669  138.7177  165.4623 O.3     1  UNL1       -0.4702
     20 C         138.0510  140.5816  164.6472 C.3     1  UNL1        0.0566
     21 C         138.7525  139.2766  164.4129 C.3     1  UNL1        0.2599
     22 C         138.5394  138.5305  163.1291 C.3     1  UNL1        0.4340
     23 F         138.3264  137.7845  161.8454 F       1  UNL1       -0.1664
     24 F         137.7661  139.6934  162.5816 F       1  UNL1       -0.1664
     25 F         139.3127  137.3677  163.6766 F       1  UNL1       -0.1664
     26 C         141.4483  143.6159  160.2100 C.ar    1  UNL1        0.0868
     27 C         142.4838  143.7012  159.1280 C.ar    1  UNL1        0.1165
     28 N         142.2653  144.6041  157.9503 N.ar    1  UNL1       -0.2205
     29 C         141.0113  145.4217  157.8545 C.ar    1  UNL1        0.2352
     30 N         139.9759  145.3363  158.9364 N.ar    1  UNL1       -0.2205
     31 C         140.1944  144.4335  160.1141 C.ar    1  UNL1        0.1165
     32 C         140.7928  146.3245  156.6767 C.3     1  UNL1        0.4523
     33 F         140.5743  147.2274  155.4990 F       1  UNL1       -0.1632
     34 F         142.0569  145.8141  156.0509 F       1  UNL1       -0.1632
     35 F         139.5287  146.8349  157.3025 F       1  UNL1       -0.1632
@<TRIPOS>BOND
     1    20    21    1
     2    21    19    1
     3    19     9    1
     4     9    10   ar
     5    10    11   ar
     6    11    12   ar
     7    12    15    1
     8    15    16    1
     9    15    17    2
    10    15    18    2
    11    12    13   ar
    12    13    14   ar
    13    14     1    1
    14     1     2    2
    15     1     3   am
    16     3     4    1
    17     4     5    1
    18     5     6    1
    19     6    26    1
    20    26    27   ar
    21    27    28   ar
    22    28    29   ar
    23    29    32    1
    24    32    33    1
    25    32    34    1
    26    32    35    1
    27    29    30   ar
    28    30    31   ar
    29     6     7    1
    30     7     8    1
    31    21    22    1
    32    22    23    1
    33    22    24    1
    34    22    25    1
    35    14     9   ar
    36     8     3    1
    37    31    26   ar
@<TRIPOS>MOLECULE
*****
 35 37 0 0 0
SMALL
GASTEIGER

@<TRIPOS>ATOM
      1 C         143.5410  142.6134  164.9422 C.2     1  UNL1        0.2521
      2 O         144.5547  143.7011  165.1400 O.2     1  UNL1       -0.2698
      3 N         143.4963  141.8561  163.6481 N.am    1  UNL1       -0.2725
      4 C         142.4825  140.7682  163.4504 C.3     1  UNL1        0.1151
      5 C         142.4379  140.0109  162.1564 C.3     1  UNL1        0.1124
      6 N         143.4070  140.3414  161.0601 N.pl3   1  UNL1       -0.3016
      7 C         144.4206  141.4292  161.2579 C.3     1  UNL1        0.1124
      8 C         144.4653  142.1865  162.5519 C.3     1  UNL1        0.1151
      9 C         141.1816  142.8450  166.0052 C.ar    1  UNL1        0.1432
     10 C         140.2126  142.5145  167.1014 C.ar    1  UNL1        0.0384
     11 C         140.6339  141.6219  168.2309 C.ar    1  UNL1        0.0215
     12 C         142.0242  141.0597  168.2642 C.ar    1  UNL1        0.1061
     13 C         142.9932  141.3903  167.1679 C.ar    1  UNL1        0.0259
     14 C         142.5719  142.2829  166.0384 C.ar    1  UNL1        0.0887
     15 S         142.4454  140.1671  169.3937 S.O2    1  UNL1        0.0105
     16 C         142.8667  139.2745  170.5232 C.3     1  UNL1        0.1816
     17 O         141.9223  141.1686  170.3802 O.2     1  UNL1       -0.1686
     18 O         142.9686  139.1656  168.4071 O.2     1  UNL1       -0.1686
     19 O         140.7604  143.7376  164.8757 O.3     1  UNL1       -0.4702
     20 C         139.3489  142.6950  162.9598 C.3     1  UNL1        0.0566
     21 C         139.4350  143.5252  164.2061 C.3     1  UNL1        0.2599
     22 C         138.1958  144.1432  164.7828 C.3     1  UNL1        0.4340
     23 F         136.9567  144.7611  165.3595 F       1  UNL1       -0.1664
     24 F         137.3707  143.0369  164.1953 F       1  UNL1       -0.1664
     25 F         139.0209  145.2494  165.3704 F       1  UNL1       -0.1664
     26 C         143.3623  139.5841  159.7661 C.ar    1  UNL1        0.0868
     27 C         143.7714  140.2565  158.4891 C.ar    1  UNL1        0.1165
     28 N         143.7267  139.4992  157.1951 N.ar    1  UNL1       -0.2205
     29 C         143.2729  138.0695  157.1781 C.ar    1  UNL1        0.2352
     30 N         142.8639  137.3972  158.4550 N.ar    1  UNL1       -0.2205
     31 C         142.9086  138.1545  159.7490 C.ar    1  UNL1        0.1165
     32 C         143.2282  137.3122  155.8840 C.3     1  UNL1        0.4523
     33 F         143.1836  136.5549  154.5900 F       1  UNL1       -0.1632
     34 F         142.4614  136.2113  156.5548 F       1  UNL1       -0.1632
     35 F         143.9951  138.4131  155.2133 F       1  UNL1       -0.1632
@<TRIPOS>BOND
     1    20    21    1
     2    21    19    1
     3    19     9    1
     4     9    10   ar
     5    10    11   ar
     6    11    12   ar
     7    12    15    1
     8    15    16    1
     9    15    17    2
    10    15    18    2
    11    12    13   ar
    12    13    14   ar
    13    14     1    1
    14     1     2    2
    15     1     3   am
    16     3     4    1
    17     4     5    1
    18     5     6    1
    19     6    26    1
    20    26    27   ar
    21    27    28   ar
    22    28    29   ar
    23    29    32    1
    24    32    33    1
    25    32    34    1
    26    32    35    1
    27    29    30   ar
    28    30    31   ar
    29     6     7    1
    30     7     8    1
    31    21    22    1
    32    22    23    1
    33    22    24    1
    34    22    25    1
    35    14     9   ar
    36     8     3    1
    37    31    26   ar
@<TRIPOS>MOLECULE
*****
 35 37 0 0 0
SMALL
GASTEIGER

@<TRIPOS>ATOM
      1 C         139.0244  139.5292  165.5461 C.2     1  UNL1        0.2521
      2 O         137.7400  138.9146  166.0176 O.2     1  UNL1       -0.2698
      3 N         139.5324  139.2385  164.1650 N.am    1  UNL1       -0.2725
      4 C         140.8169  139.8532  163.6935 C.3     1  UNL1        0.1151
      5 C         141.3249  139.5625  162.3124 C.3     1  UNL1        0.1124
      6 N         140.5484  138.6572  161.4028 N.pl3   1  UNL1       -0.3016
      7 C         139.2639  138.0425  161.8743 C.3     1  UNL1        0.1124
      8 C         138.7559  138.3332  163.2554 C.3     1  UNL1        0.1151
      9 C         139.7502  141.9205  166.2569 C.ar    1  UNL1        0.1432
     10 C         140.5267  142.8258  167.1665 C.ar    1  UNL1        0.0384
     11 C         141.3540  142.2452  168.2749 C.ar    1  UNL1        0.0215
     12 C         141.4048  140.7593  168.4737 C.ar    1  UNL1        0.1061
     13 C         140.6283  139.8540  167.5641 C.ar    1  UNL1        0.0259
     14 C         139.8010  140.4346  166.4557 C.ar    1  UNL1        0.0887
     15 S         142.2321  140.1787  169.5821 S.O2    1  UNL1        0.0105
     16 C         143.0593  139.5981  170.6905 C.3     1  UNL1        0.1816
     17 O         141.4632  140.9911  170.5815 O.2     1  UNL1       -0.1686
     18 O         143.0009  139.3663  168.5827 O.2     1  UNL1       -0.1686
     19 O         138.9229  142.5010  165.1485 O.3     1  UNL1       -0.4702
     20 C         138.4490  145.0252  165.5411 C.3     1  UNL1        0.0566
     21 C         139.1062  143.9348  164.7478 C.3     1  UNL1        0.2599
     22 C         139.9466  144.2784  163.5538 C.3     1  UNL1        0.4340
     23 F         140.7871  144.6219  162.3598 F       1  UNL1       -0.1664
     24 F         139.0524  143.4450  162.6845 F       1  UNL1       -0.1664
     25 F         140.8409  145.1117  164.4231 F       1  UNL1       -0.1664
     26 C         141.0563  138.3665  160.0216 C.ar    1  UNL1        0.0868
     27 C         142.5006  138.0200  159.8112 C.ar    1  UNL1        0.1165
     28 N         143.0085  137.7293  158.4301 N.ar    1  UNL1       -0.2205
     29 C         142.0723  137.7851  157.2594 C.ar    1  UNL1        0.2352
     30 N         140.6281  138.1316  157.4699 N.ar    1  UNL1       -0.2205
     31 C         140.1202  138.4223  158.8510 C.ar    1  UNL1        0.1165
     32 C         142.5803  137.4944  155.8783 C.3     1  UNL1        0.4523
     33 F         143.0882  137.2037  154.4972 F       1  UNL1       -0.1632
     34 F         143.3463  138.7840  155.8887 F       1  UNL1       -0.1632
     35 F         141.8142  136.2048  155.8680 F       1  UNL1       -0.1632
@<TRIPOS>BOND
     1    20    21    1
     2    21    19    1
     3    19     9    1
     4     9    10   ar
     5    10    11   ar
     6    11    12   ar
     7    12    15    1
     8    15    16    1
     9    15    17    2
    10    15    18    2
    11    12    13   ar
    12    13    14   ar
    13    14     1    1
    14     1     2    2
    15     1     3   am
    16     3     4    1
    17     4     5    1
    18     5     6    1
    19     6    26    1
    20    26    27   ar
    21    27    28   ar
    22    28    29   ar
    23    29    32    1
    24    32    33    1
    25    32    34    1
    26    32    35    1
    27    29    30   ar
    28    30    31   ar
    29     6     7    1
    30     7     8    1
    31    21    22    1
    32    22    23    1
    33    22    24    1
    34    22    25    1
    35    14     9   ar
    36     8     3    1
    37    31    26   ar
