@<TRIPOS>MOLECULE
*****
 30 33 0 0 0
SMALL
GASTEIGER

@<TRIPOS>ATOM
      1 C         138.3020  139.1802  162.4391 C.ar    1  UNL1        0.1434
      2 C         138.8655  138.0004  163.1744 C.ar    1  UNL1        0.0345
      3 C         139.0077  138.0451  164.6670 C.ar    1  UNL1        0.0074
      4 C         138.5863  139.2694  165.4243 C.ar    1  UNL1        0.0568
      5 C         138.0228  140.4491  164.6890 C.ar    1  UNL1        0.0441
      6 C         137.8806  140.4045  163.1964 C.ar    1  UNL1        0.1673
      7 C         138.7285  139.3141  166.9169 C.2     1  UNL1        0.2493
      8 O         137.6671  138.7128  167.7897 O.2     1  UNL1       -0.2699
      9 N         139.9320  139.9601  167.5366 N.am    1  UNL1       -0.2709
     10 C         140.9935  140.5614  166.6637 C.3     1  UNL1        0.1258
     11 C         142.1970  141.2074  167.2834 C.3     1  UNL1        0.1637
     12 O         142.3392  141.2521  168.7760 O.3     1  UNL1       -0.3501
     13 C         141.2779  140.6509  169.6489 C.3     1  UNL1        0.1637
     14 C         140.0743  140.0048  169.0292 C.3     1  UNL1        0.1258
     15 N         138.1598  139.1356  160.9465 N.pl3   1  UNL1       -0.1895
     16 H         137.2667  139.1864  160.5354 H       1  UNL1        0.2524
     17 C         141.8980  139.4891  159.6616 C.2     1  UNL1        0.2958
     18 N         140.6794  139.6111  160.5277 N.2     1  UNL1       -0.0277
     19 C         139.3784  139.0135  160.0804 C.cat   1  UNL1        0.4671
     20 N         139.2959  138.2939  158.7668 N.2     1  UNL1        0.0298
     21 C         140.5145  138.1719  157.9007 C.2     1  UNL1        0.3719
     22 N         140.7362  137.5250  156.5656 N.2     1  UNL1       -0.0339
     23 C         142.1743  137.7229  156.1879 C.2     1  UNL1        0.2323
     24 C         142.8414  138.4920  157.2895 C.2     1  UNL1        0.0474
     25 C         141.8155  138.7695  158.3481 C.3     1  UNL1        0.2312
     26 O         143.1990  140.0867  160.1090 O.2     1  UNL1       -0.4510
     27 C         143.8850  137.8867  161.3086 C.3     1  UNL1        0.0513
     28 C         144.0517  139.3640  161.1093 C.3     1  UNL1        0.2083
     29 O         137.3171  141.5842  162.4611 O.3     1  UNL1       -0.4688
     30 C         137.6448  142.9763  162.9134 C.3     1  UNL1        0.2526
@<TRIPOS>BOND
     1    27    28    1
     2    28    26    1
     3    26    17    1
     4    17    18    2
     5    18    19    1
     6    19    15    1
     7    15     1    1
     8     1     2   ar
     9     2     3   ar
    10     3     4   ar
    11     4     7    1
    12     7     8    2
    13     7     9   am
    14     9    10    1
    15    10    11    1
    16    11    12    1
    17    12    13    1
    18    13    14    1
    19     4     5   ar
    20     5     6   ar
    21     6    29    1
    22    29    30    1
    23    19    20    2
    24    20    21    1
    25    21    22    2
    26    22    23    1
    27    23    24    2
    28    24    25    1
    29    25    17    1
    30     6     1   ar
    31    25    21    1
    32    14     9    1
    33    15    16    1
@<TRIPOS>MOLECULE
*****
 30 33 0 0 0
SMALL
GASTEIGER

@<TRIPOS>ATOM
      1 C         142.1048  140.2551  163.5937 C.ar    1  UNL1        0.1434
      2 C         141.0868  139.4606  164.3569 C.ar    1  UNL1        0.0345
      3 C         141.1783  139.3624  165.8509 C.ar    1  UNL1        0.0074
      4 C         142.2878  140.0588  166.5817 C.ar    1  UNL1        0.0568
      5 C         143.3058  140.8533  165.8185 C.ar    1  UNL1        0.0441
      6 C         143.2143  140.9514  164.3245 C.ar    1  UNL1        0.1673
      7 C         142.3794  139.9607  168.0757 C.2     1  UNL1        0.2493
      8 O         143.0935  138.8036  168.7090 O.2     1  UNL1       -0.2699
      9 N         141.7568  141.0198  168.9364 N.am    1  UNL1       -0.2709
     10 C         141.0427  142.1770  168.3030 C.3     1  UNL1        0.1258
     11 C         140.4201  143.2360  169.1636 C.3     1  UNL1        0.1637
     12 O         140.5116  143.1380  170.6576 O.3     1  UNL1       -0.3501
     13 C         141.2257  141.9809  171.2910 C.3     1  UNL1        0.1637
     14 C         141.8483  140.9218  170.4304 C.3     1  UNL1        0.1258
     15 N         142.0134  140.3532  162.0997 N.pl3   1  UNL1       -0.1895
     16 H         142.2841  139.5907  161.5388 H       1  UNL1        0.2524
     17 C         139.6626  143.4220  161.2017 C.2     1  UNL1        0.2958
     18 N         140.1665  142.1622  161.8411 N.2     1  UNL1       -0.0277
     19 C         141.5094  141.6131  161.4603 C.cat   1  UNL1        0.4671
     20 N         142.3485  142.3239  160.4400 N.2     1  UNL1        0.0298
     21 C         141.8445  143.5837  159.8007 C.2     1  UNL1        0.3719
     22 N         142.4435  144.4961  158.7717 N.2     1  UNL1       -0.0339
     23 C         141.4707  145.6090  158.5166 C.2     1  UNL1        0.2323
     24 C         140.2705  145.3845  159.3879 C.2     1  UNL1        0.0474
     25 C         140.5015  144.1328  160.1815 C.3     1  UNL1        0.2312
     26 O         138.3196  143.9710  161.5826 O.2     1  UNL1       -0.4510
     27 C         138.5281  144.5164  164.1142 C.3     1  UNL1        0.0513
     28 C         137.8198  143.8220  162.9890 C.3     1  UNL1        0.2083
     29 O         144.2323  141.7459  163.5613 O.3     1  UNL1       -0.4688
     30 C         145.6931  141.4468  163.7243 C.3     1  UNL1        0.2526
@<TRIPOS>BOND
     1    27    28    1
     2    28    26    1
     3    26    17    1
     4    17    18    2
     5    18    19    1
     6    19    15    1
     7    15     1    1
     8     1     2   ar
     9     2     3   ar
    10     3     4   ar
    11     4     7    1
    12     7     8    2
    13     7     9   am
    14     9    10    1
    15    10    11    1
    16    11    12    1
    17    12    13    1
    18    13    14    1
    19     4     5   ar
    20     5     6   ar
    21     6    29    1
    22    29    30    1
    23    19    20    2
    24    20    21    1
    25    21    22    2
    26    22    23    1
    27    23    24    2
    28    24    25    1
    29    25    17    1
    30     6     1   ar
    31    25    21    1
    32    14     9    1
    33    15    16    1
@<TRIPOS>MOLECULE
*****
 30 33 0 0 0
SMALL
GASTEIGER

@<TRIPOS>ATOM
      1 C         138.4653  139.1674  164.6220 C.ar    1  UNL1        0.1434
      2 C         138.7998  137.8933  163.9046 C.ar    1  UNL1        0.0345
      3 C         139.0524  137.9091  162.4261 C.ar    1  UNL1        0.0074
      4 C         138.9704  139.1991  161.6650 C.ar    1  UNL1        0.0568
      5 C         138.6360  140.4732  162.3825 C.ar    1  UNL1        0.0441
      6 C         138.3834  140.4574  163.8610 C.ar    1  UNL1        0.1673
      7 C         139.2230  139.2150  160.1865 C.2     1  UNL1        0.2493
      8 O         138.0998  139.5093  159.2369 O.2     1  UNL1       -0.2699
      9 N         140.5988  138.9366  159.6577 N.am    1  UNL1       -0.2709
     10 C         141.7220  138.6423  160.6074 C.3     1  UNL1        0.1258
     11 C         143.0977  138.3639  160.0785 C.3     1  UNL1        0.1637
     12 O         143.3504  138.3798  158.6000 O.3     1  UNL1       -0.3501
     13 C         142.2272  138.6741  157.6503 C.3     1  UNL1        0.1637
     14 C         140.8514  138.9525  158.1792 C.3     1  UNL1        0.1258
     15 N         138.2128  139.1516  166.1006 N.pl3   1  UNL1       -0.1895
     16 H         137.3611  138.8033  166.4508 H       1  UNL1        0.2524
     17 C         141.6390  140.6166  167.4661 C.2     1  UNL1        0.2958
     18 N         140.5940  140.1018  166.5212 N.2     1  UNL1       -0.0277
     19 C         139.2579  139.6664  167.0455 C.cat   1  UNL1        0.4671
     20 N         138.9666  139.7457  168.5149 N.2     1  UNL1        0.0298
     21 C         140.0117  140.2605  169.4598 C.2     1  UNL1        0.3719
     22 N         140.0127  140.4522  170.9475 N.2     1  UNL1       -0.0339
     23 C         141.3495  141.0061  171.3425 C.2     1  UNL1        0.2323
     24 C         142.1747  141.1568  170.0990 C.2     1  UNL1        0.0474
     25 C         141.3479  140.6960  168.9354 C.3     1  UNL1        0.2312
     26 O         142.9752  141.0521  166.9416 O.2     1  UNL1       -0.4510
     27 C         144.0586  142.8824  165.4497 C.3     1  UNL1        0.0513
     28 C         143.2260  142.4993  166.6371 C.3     1  UNL1        0.2083
     29 O         138.0489  141.7315  164.5784 O.3     1  UNL1       -0.4688
     30 C         137.7237  142.9695  163.7964 C.3     1  UNL1        0.2526
@<TRIPOS>BOND
     1    27    28    1
     2    28    26    1
     3    26    17    1
     4    17    18    2
     5    18    19    1
     6    19    15    1
     7    15     1    1
     8     1     2   ar
     9     2     3   ar
    10     3     4   ar
    11     4     7    1
    12     7     8    2
    13     7     9   am
    14     9    10    1
    15    10    11    1
    16    11    12    1
    17    12    13    1
    18    13    14    1
    19     4     5   ar
    20     5     6   ar
    21     6    29    1
    22    29    30    1
    23    19    20    2
    24    20    21    1
    25    21    22    2
    26    22    23    1
    27    23    24    2
    28    24    25    1
    29    25    17    1
    30     6     1   ar
    31    25    21    1
    32    14     9    1
    33    15    16    1
@<TRIPOS>MOLECULE
*****
 30 33 0 0 0
SMALL
GASTEIGER

@<TRIPOS>ATOM
      1 C         139.2296  139.1818  164.4763 C.ar    1  UNL1        0.1434
      2 C         138.6449  139.3946  165.8411 C.ar    1  UNL1        0.0345
      3 C         139.5469  139.6515  167.0118 C.ar    1  UNL1        0.0074
      4 C         141.0336  139.6957  166.8176 C.ar    1  UNL1        0.0568
      5 C         141.6183  139.4829  165.4527 C.ar    1  UNL1        0.0441
      6 C         140.7163  139.2260  164.2821 C.ar    1  UNL1        0.1673
      7 C         141.9356  139.9526  167.9882 C.2     1  UNL1        0.2493
      8 O         142.9905  138.9517  168.3560 O.2     1  UNL1       -0.2699
      9 N         141.7828  141.2105  168.7909 N.am    1  UNL1       -0.2709
     10 C         140.7278  142.2114  168.4230 C.3     1  UNL1        0.1258
     11 C         140.5750  143.4692  169.2257 C.3     1  UNL1        0.1637
     12 O         141.4770  143.7262  170.3963 O.3     1  UNL1       -0.3501
     13 C         142.5319  142.7253  170.7642 C.3     1  UNL1        0.1637
     14 C         142.6848  141.4675  169.9615 C.3     1  UNL1        0.1258
     15 N         138.3276  138.9249  163.3056 N.pl3   1  UNL1       -0.1895
     16 H         137.7425  138.1331  163.2994 H       1  UNL1        0.2524
     17 C         138.3549  142.3036  161.2238 C.2     1  UNL1        0.2958
     18 N         138.3655  141.3541  162.3850 N.2     1  UNL1       -0.0277
     19 C         138.3170  139.8744  162.1444 C.cat   1  UNL1        0.4671
     20 N         138.2579  139.3441  160.7424 N.2     1  UNL1        0.0298
     21 C         138.2473  140.2935  159.5813 C.2     1  UNL1        0.3719
     22 N         138.1941  140.0664  158.0995 N.2     1  UNL1       -0.0339
     23 C         138.2096  141.4058  157.4245 C.2     1  UNL1        0.2323
     24 C         138.2725  142.4608  158.4890 C.2     1  UNL1        0.0474
     25 C         138.2958  141.7733  159.8220 C.3     1  UNL1        0.2312
     26 O         138.4033  143.7834  161.4645 O.2     1  UNL1       -0.4510
     27 C         139.7864  145.9540  161.8189 C.3     1  UNL1        0.0513
     28 C         139.7180  144.5051  161.4367 C.3     1  UNL1        0.2083
     29 O         141.3010  139.0133  162.9172 O.3     1  UNL1       -0.4688
     30 C         141.9887  140.1440  162.2113 C.3     1  UNL1        0.2526
@<TRIPOS>BOND
     1    27    28    1
     2    28    26    1
     3    26    17    1
     4    17    18    2
     5    18    19    1
     6    19    15    1
     7    15     1    1
     8     1     2   ar
     9     2     3   ar
    10     3     4   ar
    11     4     7    1
    12     7     8    2
    13     7     9   am
    14     9    10    1
    15    10    11    1
    16    11    12    1
    17    12    13    1
    18    13    14    1
    19     4     5   ar
    20     5     6   ar
    21     6    29    1
    22    29    30    1
    23    19    20    2
    24    20    21    1
    25    21    22    2
    26    22    23    1
    27    23    24    2
    28    24    25    1
    29    25    17    1
    30     6     1   ar
    31    25    21    1
    32    14     9    1
    33    15    16    1
@<TRIPOS>MOLECULE
*****
 30 33 0 0 0
SMALL
GASTEIGER

@<TRIPOS>ATOM
      1 C         138.5052  140.0512  164.1607 C.ar    1  UNL1        0.1434
      2 C         137.6817  141.2587  163.8233 C.ar    1  UNL1        0.0345
      3 C         137.7890  141.8838  162.4640 C.ar    1  UNL1        0.0074
      4 C         138.7198  141.3013  161.4420 C.ar    1  UNL1        0.0568
      5 C         139.5433  140.0938  161.7795 C.ar    1  UNL1        0.0441
      6 C         139.4360  139.4688  163.1388 C.ar    1  UNL1        0.1673
      7 C         138.8272  141.9263  160.0826 C.2     1  UNL1        0.2493
      8 O         138.0310  141.3734  158.9380 O.2     1  UNL1       -0.2699
      9 N         139.7307  143.1042  159.8681 N.am    1  UNL1       -0.2709
     10 C         140.5269  143.6571  161.0129 C.3     1  UNL1        0.1258
     11 C         141.4304  144.8350  160.7982 C.3     1  UNL1        0.1637
     12 O         141.5379  145.4600  159.4389 O.3     1  UNL1       -0.3501
     13 C         140.7417  144.9072  158.2941 C.3     1  UNL1        0.1637
     14 C         139.8382  143.7292  158.5087 C.3     1  UNL1        0.1258
     15 N         138.3979  139.4262  165.5201 N.pl3   1  UNL1       -0.1895
     16 H         137.7809  138.6735  165.6685 H       1  UNL1        0.2524
     17 C         141.2360  141.3623  167.5067 C.2     1  UNL1        0.2958
     18 N         140.4032  140.8405  166.3735 N.2     1  UNL1       -0.0277
     19 C         139.2307  139.9480  166.6534 C.cat   1  UNL1        0.4671
     20 N         138.8908  139.5771  168.0666 N.2     1  UNL1        0.0298
     21 C         139.7236  140.0989  169.1998 C.2     1  UNL1        0.3719
     22 N         139.6319  139.9060  170.6845 N.2     1  UNL1       -0.0339
     23 C         140.7478  140.6793  171.3222 C.2     1  UNL1        0.2323
     24 C         141.5292  141.3502  170.2316 C.2     1  UNL1        0.0474
     25 C         140.8962  140.9915  168.9199 C.3     1  UNL1        0.2312
     26 O         142.4086  142.2549  167.2268 O.2     1  UNL1       -0.4510
     27 C         144.1292  143.1633  165.5051 C.3     1  UNL1        0.0513
     28 C         143.2012  142.0784  165.9656 C.3     1  UNL1        0.2083
     29 O         140.2594  138.2613  163.4762 O.3     1  UNL1       -0.4688
     30 C         141.2498  137.7278  162.4841 C.3     1  UNL1        0.2526
@<TRIPOS>BOND
     1    27    28    1
     2    28    26    1
     3    26    17    1
     4    17    18    2
     5    18    19    1
     6    19    15    1
     7    15     1    1
     8     1     2   ar
     9     2     3   ar
    10     3     4   ar
    11     4     7    1
    12     7     8    2
    13     7     9   am
    14     9    10    1
    15    10    11    1
    16    11    12    1
    17    12    13    1
    18    13    14    1
    19     4     5   ar
    20     5     6   ar
    21     6    29    1
    22    29    30    1
    23    19    20    2
    24    20    21    1
    25    21    22    2
    26    22    23    1
    27    23    24    2
    28    24    25    1
    29    25    17    1
    30     6     1   ar
    31    25    21    1
    32    14     9    1
    33    15    16    1
@<TRIPOS>MOLECULE
*****
 30 33 0 0 0
SMALL
GASTEIGER

@<TRIPOS>ATOM
      1 C         142.7830  138.4788  164.9662 C.ar    1  UNL1        0.1434
      2 C         141.6532  137.6462  164.4367 C.ar    1  UNL1        0.0345
      3 C         141.4715  137.4828  162.9568 C.ar    1  UNL1        0.0074
      4 C         142.4195  138.1520  162.0063 C.ar    1  UNL1        0.0568
      5 C         143.5493  138.9846  162.5358 C.ar    1  UNL1        0.0441
      6 C         143.7310  139.1480  164.0158 C.ar    1  UNL1        0.1673
      7 C         142.2379  137.9886  160.5263 C.2     1  UNL1        0.2493
      8 O         143.2860  137.2865  159.7150 O.2     1  UNL1       -0.2699
      9 N         141.0080  138.5275  159.8577 N.am    1  UNL1       -0.2709
     10 C         139.9598  139.2297  160.6691 C.3     1  UNL1        0.1258
     11 C         138.7300  139.7685  160.0005 C.3     1  UNL1        0.1637
     12 O         138.5482  139.6052  158.5205 O.3     1  UNL1       -0.3501
     13 C         139.5964  138.9030  157.7091 C.3     1  UNL1        0.1637
     14 C         140.8262  138.3642  158.3777 C.3     1  UNL1        0.1258
     15 N         142.9647  138.6423  166.4462 N.pl3   1  UNL1       -0.1895
     16 H         143.5346  138.0129  166.9446 H       1  UNL1        0.2524
     17 C         141.0368  142.0462  167.1141 C.2     1  UNL1        0.2958
     18 N         141.7233  140.9239  166.3936 N.2     1  UNL1       -0.0277
     19 C         142.2782  139.7646  167.1667 C.cat   1  UNL1        0.4671
     20 N         142.1467  139.7275  168.6606 N.2     1  UNL1        0.0298
     21 C         141.4602  140.8498  169.3811 C.2     1  UNL1        0.3719
     22 N         141.1826  141.0875  170.8359 N.2     1  UNL1       -0.0339
     23 C         140.4560  142.3937  170.9617 C.2     1  UNL1        0.2323
     24 C         140.2846  142.9634  169.5847 C.2     1  UNL1        0.0474
     25 C         140.9053  142.0092  168.6078 C.3     1  UNL1        0.2312
     26 O         140.4818  143.2056  166.3408 O.2     1  UNL1       -0.4510
     27 C         138.4720  144.0213  164.9107 C.3     1  UNL1        0.0513
     28 C         139.4868  142.9680  165.2438 C.3     1  UNL1        0.2083
     29 O         144.8608  139.9806  164.5453 O.3     1  UNL1       -0.4688
     30 C         145.4527  141.0676  163.6979 C.3     1  UNL1        0.2526
@<TRIPOS>BOND
     1    27    28    1
     2    28    26    1
     3    26    17    1
     4    17    18    2
     5    18    19    1
     6    19    15    1
     7    15     1    1
     8     1     2   ar
     9     2     3   ar
    10     3     4   ar
    11     4     7    1
    12     7     8    2
    13     7     9   am
    14     9    10    1
    15    10    11    1
    16    11    12    1
    17    12    13    1
    18    13    14    1
    19     4     5   ar
    20     5     6   ar
    21     6    29    1
    22    29    30    1
    23    19    20    2
    24    20    21    1
    25    21    22    2
    26    22    23    1
    27    23    24    2
    28    24    25    1
    29    25    17    1
    30     6     1   ar
    31    25    21    1
    32    14     9    1
    33    15    16    1
@<TRIPOS>MOLECULE
*****
 30 33 0 0 0
SMALL
GASTEIGER

@<TRIPOS>ATOM
      1 C         139.7658  143.9813  163.9016 C.ar    1  UNL1        0.1434
      2 C         138.7997  142.9521  164.4088 C.ar    1  UNL1        0.0345
      3 C         139.2182  141.9980  165.4880 C.ar    1  UNL1        0.0074
      4 C         140.6028  142.0733  166.0600 C.ar    1  UNL1        0.0568
      5 C         141.5689  143.1025  165.5528 C.ar    1  UNL1        0.0441
      6 C         141.1504  144.0565  164.4736 C.ar    1  UNL1        0.1673
      7 C         141.0214  141.1192  167.1393 C.2     1  UNL1        0.2493
      8 O         141.6187  139.7920  166.7768 O.2     1  UNL1       -0.2699
      9 N         140.8427  141.4927  168.5810 N.am    1  UNL1       -0.2709
     10 C         140.2453  142.8201  168.9435 C.3     1  UNL1        0.1258
     11 C         140.0666  143.1934  170.3852 C.3     1  UNL1        0.1637
     12 O         140.4852  142.2395  171.4645 O.3     1  UNL1       -0.3501
     13 C         141.0825  140.9121  171.1020 C.3     1  UNL1        0.1637
     14 C         141.2612  140.5387  169.6603 C.3     1  UNL1        0.1258
     15 N         139.3473  144.9353  162.8224 N.pl3   1  UNL1       -0.1895
     16 H         138.8352  145.7442  163.0519 H       1  UNL1        0.2524
     17 C         139.3551  143.3007  159.2060 C.2     1  UNL1        0.2958
     18 N         138.9933  143.5791  160.6349 N.2     1  UNL1       -0.0277
     19 C         139.7092  144.6569  161.3935 C.cat   1  UNL1        0.4671
     20 N         140.7871  145.4565  160.7233 N.2     1  UNL1        0.0298
     21 C         141.1489  145.1781  159.2945 C.2     1  UNL1        0.3719
     22 N         142.1607  145.7973  158.3765 N.2     1  UNL1       -0.0339
     23 C         142.0700  145.1021  157.0504 C.2     1  UNL1        0.2323
     24 C         141.0022  144.0532  157.1489 C.2     1  UNL1        0.0474
     25 C         140.4329  144.1002  158.5359 C.3     1  UNL1        0.2312
     26 O         138.6391  142.2228  158.4474 O.2     1  UNL1       -0.4510
     27 C         140.3748  140.3050  158.2035 C.3     1  UNL1        0.0513
     28 C         139.0236  140.7862  158.6428 C.3     1  UNL1        0.2083
     29 O         142.1165  145.0858  163.9664 O.3     1  UNL1       -0.4688
     30 C         143.3803  144.6556  163.2825 C.3     1  UNL1        0.2526
@<TRIPOS>BOND
     1    27    28    1
     2    28    26    1
     3    26    17    1
     4    17    18    2
     5    18    19    1
     6    19    15    1
     7    15     1    1
     8     1     2   ar
     9     2     3   ar
    10     3     4   ar
    11     4     7    1
    12     7     8    2
    13     7     9   am
    14     9    10    1
    15    10    11    1
    16    11    12    1
    17    12    13    1
    18    13    14    1
    19     4     5   ar
    20     5     6   ar
    21     6    29    1
    22    29    30    1
    23    19    20    2
    24    20    21    1
    25    21    22    2
    26    22    23    1
    27    23    24    2
    28    24    25    1
    29    25    17    1
    30     6     1   ar
    31    25    21    1
    32    14     9    1
    33    15    16    1
@<TRIPOS>MOLECULE
*****
 30 33 0 0 0
SMALL
GASTEIGER

@<TRIPOS>ATOM
      1 C         142.0381  138.1011  162.8917 C.ar    1  UNL1        0.1434
      2 C         141.1399  137.1254  163.5927 C.ar    1  UNL1        0.0345
      3 C         140.3217  137.5704  164.7686 C.ar    1  UNL1        0.0074
      4 C         140.4016  138.9910  165.2434 C.ar    1  UNL1        0.0568
      5 C         141.2998  139.9667  164.5423 C.ar    1  UNL1        0.0441
      6 C         142.1180  139.5217  163.3665 C.ar    1  UNL1        0.1673
      7 C         139.5834  139.4361  166.4192 C.2     1  UNL1        0.2493
      8 O         138.0890  139.5048  166.3101 O.2     1  UNL1       -0.2699
      9 N         140.2598  139.8126  167.7040 N.am    1  UNL1       -0.2709
     10 C         141.7543  139.7439  167.8130 C.3     1  UNL1        0.1258
     11 C         142.4306  140.1204  169.0979 C.3     1  UNL1        0.1637
     12 O         141.6124  140.5654  170.2737 O.3     1  UNL1       -0.3501
     13 C         140.1180  140.6341  170.1647 C.3     1  UNL1        0.1637
     14 C         139.4417  140.2577  168.8799 C.3     1  UNL1        0.1258
     15 N         142.8563  137.6561  161.7159 N.pl3   1  UNL1       -0.1895
     16 H         143.7313  137.2281  161.8588 H       1  UNL1        0.2524
     17 C         142.6769  137.6957  157.7515 C.2     1  UNL1        0.2958
     18 N         143.1919  137.4887  159.1451 N.2     1  UNL1       -0.0277
     19 C         142.3412  137.8631  160.3223 C.cat   1  UNL1        0.4671
     20 N         140.9754  138.4445  160.1062 N.2     1  UNL1        0.0298
     21 C         140.4604  138.6515  158.7127 C.2     1  UNL1        0.3719
     22 N         139.1648  139.2001  158.1927 N.2     1  UNL1       -0.0339
     23 C         139.2148  139.1648  156.6939 C.2     1  UNL1        0.2323
     24 C         140.5413  138.5944  156.2877 C.2     1  UNL1        0.0474
     25 C         141.3112  138.2771  157.5354 C.3     1  UNL1        0.2312
     26 O         143.5276  137.3214  156.5742 O.2     1  UNL1       -0.4510
     27 C         142.4106  135.0240  156.1004 C.3     1  UNL1        0.0513
     28 C         143.6375  135.8854  156.1546 C.3     1  UNL1        0.2083
     29 O         143.0162  140.4973  162.6655 O.3     1  UNL1       -0.4688
     30 C         144.1488  141.1416  163.4085 C.3     1  UNL1        0.2526
@<TRIPOS>BOND
     1    27    28    1
     2    28    26    1
     3    26    17    1
     4    17    18    2
     5    18    19    1
     6    19    15    1
     7    15     1    1
     8     1     2   ar
     9     2     3   ar
    10     3     4   ar
    11     4     7    1
    12     7     8    2
    13     7     9   am
    14     9    10    1
    15    10    11    1
    16    11    12    1
    17    12    13    1
    18    13    14    1
    19     4     5   ar
    20     5     6   ar
    21     6    29    1
    22    29    30    1
    23    19    20    2
    24    20    21    1
    25    21    22    2
    26    22    23    1
    27    23    24    2
    28    24    25    1
    29    25    17    1
    30     6     1   ar
    31    25    21    1
    32    14     9    1
    33    15    16    1
@<TRIPOS>MOLECULE
*****
 30 33 0 0 0
SMALL
GASTEIGER

@<TRIPOS>ATOM
      1 C         137.8604  139.6259  162.4258 C.ar    1  UNL1        0.1434
      2 C         138.4577  138.3759  163.0009 C.ar    1  UNL1        0.0345
      3 C         138.8326  138.3228  164.4523 C.ar    1  UNL1        0.0074
      4 C         138.6100  139.5197  165.3286 C.ar    1  UNL1        0.0568
      5 C         138.0127  140.7696  164.7535 C.ar    1  UNL1        0.0441
      6 C         137.6378  140.8227  163.3021 C.ar    1  UNL1        0.1673
      7 C         138.9849  139.4667  166.7801 C.2     1  UNL1        0.2493
      8 O         138.0473  138.8489  167.7747 O.2     1  UNL1       -0.2699
      9 N         140.2972  140.0315  167.2369 N.am    1  UNL1       -0.2709
     10 C         141.2348  140.6494  166.2421 C.3     1  UNL1        0.1258
     11 C         142.5471  141.2142  166.6989 C.3     1  UNL1        0.1637
     12 O         142.9220  141.1612  168.1504 O.3     1  UNL1       -0.3501
     13 C         141.9845  140.5434  169.1451 C.3     1  UNL1        0.1637
     14 C         140.6721  139.9786  168.6883 C.3     1  UNL1        0.1258
     15 N         137.4855  139.6790  160.9743 N.pl3   1  UNL1       -0.1895
     16 H         136.5938  139.3784  160.6849 H       1  UNL1        0.2524
     17 C         140.4980  141.6970  159.3610 C.2     1  UNL1        0.2958
     18 N         139.5142  141.1859  160.3714 N.2     1  UNL1       -0.0277
     19 C         138.4694  140.1900  159.9638 C.cat   1  UNL1        0.4671
     20 N         138.4082  139.7050  158.5456 N.2     1  UNL1        0.0298
     21 C         139.3920  140.2160  157.5352 C.2     1  UNL1        0.3719
     22 N         139.5757  139.9225  156.0757 N.2     1  UNL1       -0.0339
     23 C         140.7342  140.7371  155.5814 C.2     1  UNL1        0.2323
     24 C         141.2664  141.5341  156.7353 C.2     1  UNL1        0.0474
     25 C         140.4369  141.2120  157.9429 C.3     1  UNL1        0.2312
     26 O         141.5429  142.6929  159.7687 O.2     1  UNL1       -0.4510
     27 C         142.1025  144.3234  161.7125 C.3     1  UNL1        0.0513
     28 C         141.8231  142.9334  161.2225 C.3     1  UNL1        0.2083
     29 O         137.0405  142.0727  162.7270 O.3     1  UNL1       -0.4688
     30 C         137.7949  143.3670  162.8003 C.3     1  UNL1        0.2526
@<TRIPOS>BOND
     1    27    28    1
     2    28    26    1
     3    26    17    1
     4    17    18    2
     5    18    19    1
     6    19    15    1
     7    15     1    1
     8     1     2   ar
     9     2     3   ar
    10     3     4   ar
    11     4     7    1
    12     7     8    2
    13     7     9   am
    14     9    10    1
    15    10    11    1
    16    11    12    1
    17    12    13    1
    18    13    14    1
    19     4     5   ar
    20     5     6   ar
    21     6    29    1
    22    29    30    1
    23    19    20    2
    24    20    21    1
    25    21    22    2
    26    22    23    1
    27    23    24    2
    28    24    25    1
    29    25    17    1
    30     6     1   ar
    31    25    21    1
    32    14     9    1
    33    15    16    1
