@<TRIPOS>MOLECULE
*****
 47 54 0 0 0
SMALL
GASTEIGER

@<TRIPOS>ATOM
      1 C         141.6759  138.7029  158.2946 C.ar    1  UNL1        0.0176
      2 C         140.2665  138.8872  157.8154 C.ar    1  UNL1        0.0014
      3 C         139.1606  139.1064  158.8049 C.ar    1  UNL1        0.0015
      4 C         139.4641  139.1413  160.2734 C.ar    1  UNL1        0.0174
      5 C         140.8735  138.9571  160.7526 C.ar    1  UNL1        0.0653
      6 C         141.9794  138.7379  159.7632 C.ar    1  UNL1        0.0246
      7 N         145.7213  140.5254  155.5903 N.pl3   1  UNL1       -0.3289
      8 C         144.8045  139.3950  155.9531 C.ar    1  UNL1        0.1923
      9 N         143.6986  139.6142  156.9425 N.ar    1  UNL1       -0.2155
     10 C         142.7818  138.4837  157.3052 C.ar    1  UNL1        0.0868
     11 C         142.9709  137.1341  156.6786 C.ar    1  UNL1        0.0532
     12 C         142.2296  135.8400  156.8395 C.ar    1  UNL1        0.0233
     13 C         142.8774  134.8210  155.9495 C.ar    1  UNL1        0.0788
     14 N         144.0190  135.4853  155.2386 N.ar    1  UNL1       -0.2287
     15 C         144.0769  136.9148  155.6892 C.ar    1  UNL1        0.1439
     16 N         144.9936  138.0453  155.3264 N.ar    1  UNL1       -0.3123
     17 H         145.5972  141.4112  156.0016 H       1  UNL1        0.1451
     18 H         146.4471  140.3815  154.9409 H       1  UNL1        0.1451
     19 H         145.7195  137.9014  154.6770 H       1  UNL1        0.1700
     20 C         142.4572  133.3891  155.7971 C.2     1  UNL1       -0.0060
     21 C         143.1658  132.3137  156.5662 C.2     1  UNL1       -0.0115
     22 C         142.7457  130.8819  156.4140 C.3     1  UNL1        0.0987
     23 N         141.6170  130.5254  155.4926 N.3     1  UNL1       -0.2656
     24 C         140.9085  131.6007  154.7235 C.3     1  UNL1        0.0772
     25 C         141.3286  133.0326  154.8758 C.3     1  UNL1        0.0449
     26 C         141.1968  129.0934  155.3402 C.3     1  UNL1        0.1175
     27 C         139.9012  128.3927  155.0570 C.3     1  UNL1        0.1606
     28 O         140.6027  127.0685  155.1248 O.3     1  UNL1       -0.3507
     29 C         141.8982  127.7693  155.4081 C.3     1  UNL1        0.1606
     30 N         141.1770  138.9920  162.2212 N.ar    1  UNL1       -0.2733
     31 C         141.1626  137.7228  163.0204 C.ar    1  UNL1        0.0829
     32 C         141.4661  137.7578  164.4890 C.ar    1  UNL1        0.0193
     33 C         141.7840  139.0620  165.1582 C.ar    1  UNL1        0.0080
     34 C         142.0875  139.0970  166.6269 C.ar    1  UNL1       -0.0039
     35 C         142.4054  140.4012  167.2962 C.ar    1  UNL1       -0.0203
     36 C         142.4198  141.6705  166.4968 C.ar    1  UNL1        0.0255
     37 C         142.1163  141.6355  165.0283 C.ar    1  UNL1        0.1444
     38 F         142.1307  142.9047  164.2291 F       1  UNL1       -0.2040
     39 C         141.7984  140.3313  164.3590 C.ar    1  UNL1        0.0839
     40 C         141.4949  140.2963  162.8905 C.ar    1  UNL1        0.2668
     41 O         141.5093  141.5655  162.0912 O.2     1  UNL1       -0.2665
     42 C         142.7089  140.4362  168.7647 C.3     1  UNL1        0.0224
     43 C         142.6274  139.8060  170.1234 C.3     1  UNL1        0.0047
     44 C         143.3160  141.1272  169.9496 C.3     1  UNL1        0.0047
     45 C         143.3888  138.5536  160.2424 C.3     1  UNL1        0.1651
     46 O         143.7953  137.2684  160.9005 O.3     1  UNL1       -0.3772
     47 H         143.3237  137.1732  161.7428 H       1  UNL1        0.2109
@<TRIPOS>BOND
     1     7     8    1
     2     8     9   ar
     3     9    10   ar
     4    10     1    1
     5     1     2   ar
     6     2     3   ar
     7     3     4   ar
     8     4     5   ar
     9     5    30    1
    10    30    31   ar
    11    31    32   ar
    12    32    33   ar
    13    33    34   ar
    14    34    35   ar
    15    35    42    1
    16    42    43    1
    17    43    44    1
    18    35    36   ar
    19    36    37   ar
    20    37    38    1
    21    37    39   ar
    22    39    40   ar
    23    40    41    2
    24     5     6   ar
    25     6    45    1
    26    45    46    1
    27    10    11   ar
    28    11    12   ar
    29    12    13   ar
    30    13    20    1
    31    20    21    2
    32    21    22    1
    33    22    23    1
    34    23    26    1
    35    26    27    1
    36    27    28    1
    37    28    29    1
    38    23    24    1
    39    24    25    1
    40    13    14   ar
    41    14    15   ar
    42    15    16   ar
    43    16     8   ar
    44     6     1   ar
    45    15    11    1
    46    40    30   ar
    47    25    20    1
    48    39    33   ar
    49    29    26    1
    50    44    42    1
    51     7    17    1
    52     7    18    1
    53    46    47    1
    54    16    19    1
@<TRIPOS>MOLECULE
*****
 47 54 0 0 0
SMALL
GASTEIGER

@<TRIPOS>ATOM
      1 C         140.6760  140.3319  158.4198 C.ar    1  UNL1        0.0176
      2 C         139.3968  140.5853  157.6787 C.ar    1  UNL1        0.0014
      3 C         138.0968  140.6446  158.4248 C.ar    1  UNL1        0.0015
      4 C         138.0761  140.4504  159.9120 C.ar    1  UNL1        0.0174
      5 C         139.3554  140.1970  160.6532 C.ar    1  UNL1        0.0653
      6 C         140.6553  140.1377  159.9071 C.ar    1  UNL1        0.0246
      7 N         144.8382  142.7265  156.4345 N.pl3   1  UNL1       -0.3289
      8 C         144.0571  141.4700  156.6811 C.ar    1  UNL1        0.1923
      9 N         142.7571  141.5292  157.4272 N.ar    1  UNL1       -0.2155
     10 C         141.9760  140.2727  157.6738 C.ar    1  UNL1        0.0868
     11 C         142.4947  138.9568  157.1744 C.ar    1  UNL1        0.0532
     12 C         141.9490  137.5627  157.2661 C.ar    1  UNL1        0.0233
     13 C         142.9117  136.6417  156.5768 C.ar    1  UNL1        0.0788
     14 N         144.0524  137.4667  156.0590 N.ar    1  UNL1       -0.2287
     15 C         143.7947  138.8975  156.4283 C.ar    1  UNL1        0.1439
     16 N         144.5759  140.1541  156.1817 N.ar    1  UNL1       -0.3123
     17 H         144.4977  143.5902  156.7623 H       1  UNL1        0.1451
     18 H         145.6914  142.6876  155.9448 H       1  UNL1        0.1451
     19 H         145.4291  140.1152  155.6920 H       1  UNL1        0.1700
     20 C         142.7602  135.1565  156.4309 C.2     1  UNL1       -0.0060
     21 C         143.6066  134.2318  157.2545 C.2     1  UNL1       -0.0115
     22 C         143.4551  132.7466  157.1087 C.3     1  UNL1        0.0987
     23 N         142.4572  132.1862  156.1391 N.3     1  UNL1       -0.2656
     24 C         141.6108  133.1109  155.3155 C.3     1  UNL1        0.0772
     25 C         141.7622  134.5961  155.4613 C.3     1  UNL1        0.0449
     26 C         142.3057  130.7009  155.9932 C.3     1  UNL1        0.1175
     27 C         141.4371  129.7995  155.1668 C.3     1  UNL1        0.1606
     28 O         142.0915  128.6006  155.7868 O.3     1  UNL1       -0.3507
     29 C         142.9600  129.5020  156.6132 C.3     1  UNL1        0.1606
     30 N         139.3346  140.0028  162.1404 N.ar    1  UNL1       -0.2733
     31 C         138.8813  138.6957  162.7199 C.ar    1  UNL1        0.0829
     32 C         138.8606  138.5015  164.2071 C.ar    1  UNL1        0.0193
     33 C         139.2931  139.6146  165.1149 C.ar    1  UNL1        0.0080
     34 C         139.2724  139.4204  166.6022 C.ar    1  UNL1       -0.0039
     35 C         139.7049  140.5335  167.5099 C.ar    1  UNL1       -0.0203
     36 C         140.1582  141.8407  166.9304 C.ar    1  UNL1        0.0255
     37 C         140.1790  142.0348  165.4432 C.ar    1  UNL1        0.1444
     38 F         140.6322  143.3420  164.8637 F       1  UNL1       -0.2040
     39 C         139.7464  140.9218  164.5354 C.ar    1  UNL1        0.0839
     40 C         139.7671  141.1159  163.0482 C.ar    1  UNL1        0.2668
     41 O         140.2204  142.4231  162.4687 O.2     1  UNL1       -0.2665
     42 C         139.6842  140.3393  168.9971 C.3     1  UNL1        0.0224
     43 C         140.3956  139.9969  170.2725 C.3     1  UNL1        0.0047
     44 C         138.9369  140.3456  170.2977 C.3     1  UNL1        0.0047
     45 C         141.9345  139.8843  160.6483 C.3     1  UNL1        0.1651
     46 O         142.7192  141.0350  161.2053 O.3     1  UNL1       -0.3772
     47 H         143.0586  141.5778  160.4765 H       1  UNL1        0.2109
@<TRIPOS>BOND
     1     7     8    1
     2     8     9   ar
     3     9    10   ar
     4    10     1    1
     5     1     2   ar
     6     2     3   ar
     7     3     4   ar
     8     4     5   ar
     9     5    30    1
    10    30    31   ar
    11    31    32   ar
    12    32    33   ar
    13    33    34   ar
    14    34    35   ar
    15    35    42    1
    16    42    43    1
    17    43    44    1
    18    35    36   ar
    19    36    37   ar
    20    37    38    1
    21    37    39   ar
    22    39    40   ar
    23    40    41    2
    24     5     6   ar
    25     6    45    1
    26    45    46    1
    27    10    11   ar
    28    11    12   ar
    29    12    13   ar
    30    13    20    1
    31    20    21    2
    32    21    22    1
    33    22    23    1
    34    23    26    1
    35    26    27    1
    36    27    28    1
    37    28    29    1
    38    23    24    1
    39    24    25    1
    40    13    14   ar
    41    14    15   ar
    42    15    16   ar
    43    16     8   ar
    44     6     1   ar
    45    15    11    1
    46    40    30   ar
    47    25    20    1
    48    39    33   ar
    49    29    26    1
    50    44    42    1
    51     7    17    1
    52     7    18    1
    53    46    47    1
    54    16    19    1
@<TRIPOS>MOLECULE
*****
 47 54 0 0 0
SMALL
GASTEIGER

@<TRIPOS>ATOM
      1 C         139.4546  141.3362  158.1647 C.ar    1  UNL1        0.0176
      2 C         140.7409  140.9788  157.4809 C.ar    1  UNL1        0.0014
      3 C         141.9655  140.6819  158.2948 C.ar    1  UNL1        0.0015
      4 C         141.9037  140.7422  159.7922 C.ar    1  UNL1        0.0174
      5 C         140.6173  141.0996  160.4760 C.ar    1  UNL1        0.0653
      6 C         139.3928  141.3966  159.6622 C.ar    1  UNL1        0.0246
      7 N         134.7264  139.9799  156.4900 N.pl3   1  UNL1       -0.3289
      8 C         135.8659  140.9550  156.5136 C.ar    1  UNL1        0.1923
      9 N         137.0905  140.6581  157.3273 N.ar    1  UNL1       -0.2155
     10 C         138.2300  141.6332  157.3509 C.ar    1  UNL1        0.0868
     11 C         138.1450  142.9054  156.5608 C.ar    1  UNL1        0.0532
     12 C         139.1024  144.0476  156.3913 C.ar    1  UNL1        0.0233
     13 C         138.4695  145.0505  155.4728 C.ar    1  UNL1        0.0788
     14 N         137.1210  144.5282  155.0746 N.ar    1  UNL1       -0.2287
     15 C         136.9204  143.2024  155.7470 C.ar    1  UNL1        0.1439
     16 N         135.7809  142.2273  155.7234 N.ar    1  UNL1       -0.3123
     17 H         134.7822  139.1449  157.0086 H       1  UNL1        0.1451
     18 H         133.9227  140.1748  155.9559 H       1  UNL1        0.1451
     19 H         134.9771  142.4222  155.1893 H       1  UNL1        0.1700
     20 C         139.0784  146.3480  155.0302 C.2     1  UNL1       -0.0060
     21 C         138.5932  147.6418  155.6139 C.2     1  UNL1       -0.0115
     22 C         139.2020  148.9393  155.1714 C.3     1  UNL1        0.0987
     23 N         140.2960  148.9430  154.1452 N.3     1  UNL1       -0.2656
     24 C         140.7811  147.6492  153.5615 C.3     1  UNL1        0.0772
     25 C         140.1723  146.3517  154.0040 C.3     1  UNL1        0.0449
     26 C         140.9048  150.2405  153.7026 C.3     1  UNL1        0.1175
     27 C         141.4640  151.4433  154.4032 C.3     1  UNL1        0.1606
     28 O         141.7658  152.0754  153.0768 O.3     1  UNL1       -0.3507
     29 C         141.2067  150.8728  152.3763 C.3     1  UNL1        0.1606
     30 N         140.5555  141.1600  161.9735 N.ar    1  UNL1       -0.2733
     31 C         141.1119  142.3486  162.6998 C.ar    1  UNL1        0.0829
     32 C         141.0501  142.4090  164.1973 C.ar    1  UNL1        0.0193
     33 C         140.4319  141.2807  164.9685 C.ar    1  UNL1        0.0080
     34 C         140.3701  141.3410  166.4661 C.ar    1  UNL1       -0.0039
     35 C         139.7519  140.2127  167.2373 C.ar    1  UNL1       -0.0203
     36 C         139.1955  139.0241  166.5109 C.ar    1  UNL1        0.0255
     37 C         139.2573  138.9637  165.0134 C.ar    1  UNL1        0.1444
     38 F         138.7009  137.7751  164.2871 F       1  UNL1       -0.2040
     39 C         139.8755  140.0920  164.2422 C.ar    1  UNL1        0.0839
     40 C         139.9373  140.0317  162.7447 C.ar    1  UNL1        0.2668
     41 O         139.3809  138.8430  162.0184 O.2     1  UNL1       -0.2665
     42 C         139.6901  140.2731  168.7347 C.3     1  UNL1        0.0224
     43 C         140.3457  140.0846  170.0706 C.3     1  UNL1        0.0047
     44 C         138.9273  140.5661  169.9926 C.3     1  UNL1        0.0047
     45 C         138.1064  141.7540  160.3460 C.3     1  UNL1        0.1651
     46 O         137.9426  143.1049  160.9771 O.3     1  UNL1       -0.3772
     47 H         138.5532  143.1879  161.7263 H       1  UNL1        0.2109
@<TRIPOS>BOND
     1     7     8    1
     2     8     9   ar
     3     9    10   ar
     4    10     1    1
     5     1     2   ar
     6     2     3   ar
     7     3     4   ar
     8     4     5   ar
     9     5    30    1
    10    30    31   ar
    11    31    32   ar
    12    32    33   ar
    13    33    34   ar
    14    34    35   ar
    15    35    42    1
    16    42    43    1
    17    43    44    1
    18    35    36   ar
    19    36    37   ar
    20    37    38    1
    21    37    39   ar
    22    39    40   ar
    23    40    41    2
    24     5     6   ar
    25     6    45    1
    26    45    46    1
    27    10    11   ar
    28    11    12   ar
    29    12    13   ar
    30    13    20    1
    31    20    21    2
    32    21    22    1
    33    22    23    1
    34    23    26    1
    35    26    27    1
    36    27    28    1
    37    28    29    1
    38    23    24    1
    39    24    25    1
    40    13    14   ar
    41    14    15   ar
    42    15    16   ar
    43    16     8   ar
    44     6     1   ar
    45    15    11    1
    46    40    30   ar
    47    25    20    1
    48    39    33   ar
    49    29    26    1
    50    44    42    1
    51     7    17    1
    52     7    18    1
    53    46    47    1
    54    16    19    1
@<TRIPOS>MOLECULE
*****
 47 54 0 0 0
SMALL
GASTEIGER

@<TRIPOS>ATOM
      1 C         142.7165  141.4109  158.3574 C.ar    1  UNL1        0.0176
      2 C         141.4927  142.1083  157.8417 C.ar    1  UNL1        0.0014
      3 C         140.3395  142.3784  158.7623 C.ar    1  UNL1        0.0015
      4 C         140.4102  141.9512  160.1984 C.ar    1  UNL1        0.0174
      5 C         141.6341  141.2538  160.7140 C.ar    1  UNL1        0.0653
      6 C         142.7872  140.9837  159.7935 C.ar    1  UNL1        0.0246
      7 N         147.0653  143.0073  156.0038 N.pl3   1  UNL1       -0.3289
      8 C         146.0440  141.9390  156.2601 C.ar    1  UNL1        0.1923
      9 N         144.8909  142.2091  157.1806 N.ar    1  UNL1       -0.2155
     10 C         143.8696  141.1408  157.4369 C.ar    1  UNL1        0.0868
     11 C         144.0015  139.8024  156.7728 C.ar    1  UNL1        0.0532
     12 C         143.1568  138.5643  156.8333 C.ar    1  UNL1        0.0233
     13 C         143.7879  137.5289  155.9502 C.ar    1  UNL1        0.0788
     14 N         145.0227  138.1271  155.3439 N.ar    1  UNL1       -0.2287
     15 C         145.1547  139.5322  155.8523 C.ar    1  UNL1        0.1439
     16 N         146.1759  140.6005  155.5959 N.ar    1  UNL1       -0.3123
     17 H         146.9787  143.8858  156.4397 H       1  UNL1        0.1451
     18 H         147.8221  142.8300  155.3997 H       1  UNL1        0.1451
     19 H         146.9328  140.4232  154.9918 H       1  UNL1        0.1700
     20 C         143.2744  136.1393  155.7147 C.2     1  UNL1       -0.0060
     21 C         143.3793  135.1074  156.7983 C.2     1  UNL1       -0.0115
     22 C         142.8658  133.7179  156.5629 C.3     1  UNL1        0.0987
     23 N         142.2474  133.3603  155.2439 N.3     1  UNL1       -0.2656
     24 C         142.1425  134.3922  154.1604 C.3     1  UNL1        0.0772
     25 C         142.6560  135.7817  154.3958 C.3     1  UNL1        0.0449
     26 C         141.7339  131.9706  155.0085 C.3     1  UNL1        0.1175
     27 C         142.1167  130.6026  155.4902 C.3     1  UNL1        0.1606
     28 O         141.0077  130.0056  154.6755 O.3     1  UNL1       -0.3507
     29 C         140.6249  131.3735  154.1939 C.3     1  UNL1        0.1606
     30 N         141.7048  140.8266  162.1502 N.ar    1  UNL1       -0.2733
     31 C         141.1902  139.4779  162.5576 C.ar    1  UNL1        0.0829
     32 C         141.2609  139.0507  163.9938 C.ar    1  UNL1        0.0193
     33 C         141.8462  139.9723  165.0224 C.ar    1  UNL1        0.0080
     34 C         141.9169  139.5451  166.4586 C.ar    1  UNL1       -0.0039
     35 C         142.5021  140.4667  167.4873 C.ar    1  UNL1       -0.0203
     36 C         143.0167  141.8155  167.0798 C.ar    1  UNL1        0.0255
     37 C         142.9460  142.2426  165.6436 C.ar    1  UNL1        0.1444
     38 F         143.4605  143.5914  165.2362 F       1  UNL1       -0.2040
     39 C         142.3607  141.3211  164.6150 C.ar    1  UNL1        0.0839
     40 C         142.2900  141.7482  163.1789 C.ar    1  UNL1        0.2668
     41 O         142.8046  143.0970  162.7713 O.2     1  UNL1       -0.2665
     42 C         142.5728  140.0395  168.9234 C.3     1  UNL1        0.0224
     43 C         142.7779  140.3770  170.3705 C.3     1  UNL1        0.0047
     44 C         142.4902  138.9621  169.9638 C.3     1  UNL1        0.0047
     45 C         144.0111  140.2864  160.3092 C.3     1  UNL1        0.1651
     46 O         144.0857  138.7883  160.2879 O.3     1  UNL1       -0.3772
     47 H         143.4229  138.4229  160.8947 H       1  UNL1        0.2109
@<TRIPOS>BOND
     1     7     8    1
     2     8     9   ar
     3     9    10   ar
     4    10     1    1
     5     1     2   ar
     6     2     3   ar
     7     3     4   ar
     8     4     5   ar
     9     5    30    1
    10    30    31   ar
    11    31    32   ar
    12    32    33   ar
    13    33    34   ar
    14    34    35   ar
    15    35    42    1
    16    42    43    1
    17    43    44    1
    18    35    36   ar
    19    36    37   ar
    20    37    38    1
    21    37    39   ar
    22    39    40   ar
    23    40    41    2
    24     5     6   ar
    25     6    45    1
    26    45    46    1
    27    10    11   ar
    28    11    12   ar
    29    12    13   ar
    30    13    20    1
    31    20    21    2
    32    21    22    1
    33    22    23    1
    34    23    26    1
    35    26    27    1
    36    27    28    1
    37    28    29    1
    38    23    24    1
    39    24    25    1
    40    13    14   ar
    41    14    15   ar
    42    15    16   ar
    43    16     8   ar
    44     6     1   ar
    45    15    11    1
    46    40    30   ar
    47    25    20    1
    48    39    33   ar
    49    29    26    1
    50    44    42    1
    51     7    17    1
    52     7    18    1
    53    46    47    1
    54    16    19    1
@<TRIPOS>MOLECULE
*****
 47 54 0 0 0
SMALL
GASTEIGER

@<TRIPOS>ATOM
      1 C         142.0162  141.3465  158.2003 C.ar    1  UNL1        0.0176
      2 C         140.8033  141.7026  157.3927 C.ar    1  UNL1        0.0014
      3 C         139.5107  142.0238  158.0827 C.ar    1  UNL1        0.0015
      4 C         139.4310  141.9889  159.5802 C.ar    1  UNL1        0.0174
      5 C         140.6439  141.6328  160.3877 C.ar    1  UNL1        0.0653
      6 C         141.9364  141.3116  159.6978 C.ar    1  UNL1        0.0246
      7 N         146.7399  142.7955  156.5922 N.pl3   1  UNL1       -0.3289
      8 C         145.6706  141.7498  156.7063 C.ar    1  UNL1        0.1923
      9 N         144.3781  142.0710  157.3962 N.ar    1  UNL1       -0.2155
     10 C         143.3087  141.0253  157.5104 C.ar    1  UNL1        0.0868
     11 C         143.5320  139.6583  156.9346 C.ar    1  UNL1        0.0532
     12 C         142.6681  138.4328  156.8943 C.ar    1  UNL1        0.0233
     13 C         143.4267  137.3541  156.1794 C.ar    1  UNL1        0.0788
     14 N         144.7595  137.9130  155.7779 N.ar    1  UNL1       -0.2287
     15 C         144.8247  139.3370  156.2446 C.ar    1  UNL1        0.1439
     16 N         145.8940  140.3828  156.1305 N.ar    1  UNL1       -0.3123
     17 H         146.5934  143.6927  156.9701 H       1  UNL1        0.1451
     18 H         147.5883  142.5847  156.1393 H       1  UNL1        0.1451
     19 H         146.7423  140.1720  155.6777 H       1  UNL1        0.1700
     20 C         142.9382  135.9611  155.9129 C.2     1  UNL1       -0.0060
     21 C         143.3499  134.8364  156.8160 C.2     1  UNL1       -0.0115
     22 C         142.8615  133.4434  156.5495 C.3     1  UNL1        0.0987
     23 N         141.9614  133.1752  155.3800 N.3     1  UNL1       -0.2656
     24 C         141.5497  134.2999  154.4769 C.3     1  UNL1        0.0772
     25 C         142.0381  135.6929  154.7434 C.3     1  UNL1        0.0449
     26 C         141.4729  131.7822  155.1134 C.3     1  UNL1        0.1175
     27 C         140.3398  131.1871  154.3311 C.3     1  UNL1        0.1606
     28 O         140.7821  129.8122  154.7365 O.3     1  UNL1       -0.3507
     29 C         141.9151  130.4073  155.5188 C.3     1  UNL1        0.1606
     30 N         140.5641  141.5980  161.8852 N.ar    1  UNL1       -0.2733
     31 C         141.0882  142.7493  162.6912 C.ar    1  UNL1        0.0829
     32 C         141.0085  142.7144  164.1886 C.ar    1  UNL1        0.0193
     33 C         140.4046  141.5281  164.8801 C.ar    1  UNL1        0.0080
     34 C         140.3249  141.4933  166.3776 C.ar    1  UNL1       -0.0039
     35 C         139.7210  140.3070  167.0691 C.ar    1  UNL1       -0.0203
     36 C         139.1969  139.1556  166.2630 C.ar    1  UNL1        0.0255
     37 C         139.2766  139.1905  164.7656 C.ar    1  UNL1        0.1444
     38 F         138.7525  138.0392  163.9596 F       1  UNL1       -0.2040
     39 C         139.8805  140.3768  164.0741 C.ar    1  UNL1        0.0839
     40 C         139.9603  140.4117  162.5767 C.ar    1  UNL1        0.2668
     41 O         139.4361  139.2603  161.7706 O.2     1  UNL1       -0.2665
     42 C         139.6413  140.2721  168.5665 C.3     1  UNL1        0.0224
     43 C         138.8266  140.3129  169.8253 C.3     1  UNL1        0.0047
     44 C         140.3179  140.1708  169.9014 C.3     1  UNL1        0.0047
     45 C         143.1493  140.9555  160.5053 C.3     1  UNL1        0.1651
     46 O         144.2760  141.9368  160.6388 O.3     1  UNL1       -0.3772
     47 H         144.6915  142.0718  159.7728 H       1  UNL1        0.2109
@<TRIPOS>BOND
     1     7     8    1
     2     8     9   ar
     3     9    10   ar
     4    10     1    1
     5     1     2   ar
     6     2     3   ar
     7     3     4   ar
     8     4     5   ar
     9     5    30    1
    10    30    31   ar
    11    31    32   ar
    12    32    33   ar
    13    33    34   ar
    14    34    35   ar
    15    35    42    1
    16    42    43    1
    17    43    44    1
    18    35    36   ar
    19    36    37   ar
    20    37    38    1
    21    37    39   ar
    22    39    40   ar
    23    40    41    2
    24     5     6   ar
    25     6    45    1
    26    45    46    1
    27    10    11   ar
    28    11    12   ar
    29    12    13   ar
    30    13    20    1
    31    20    21    2
    32    21    22    1
    33    22    23    1
    34    23    26    1
    35    26    27    1
    36    27    28    1
    37    28    29    1
    38    23    24    1
    39    24    25    1
    40    13    14   ar
    41    14    15   ar
    42    15    16   ar
    43    16     8   ar
    44     6     1   ar
    45    15    11    1
    46    40    30   ar
    47    25    20    1
    48    39    33   ar
    49    29    26    1
    50    44    42    1
    51     7    17    1
    52     7    18    1
    53    46    47    1
    54    16    19    1
@<TRIPOS>MOLECULE
*****
 47 54 0 0 0
SMALL
GASTEIGER

@<TRIPOS>ATOM
      1 C         139.9543  142.8167  158.1709 C.ar    1  UNL1        0.0176
      2 C         141.1195  143.5352  157.5575 C.ar    1  UNL1        0.0014
      3 C         142.0863  144.2787  158.4308 C.ar    1  UNL1        0.0015
      4 C         141.8880  144.3036  159.9173 C.ar    1  UNL1        0.0174
      5 C         140.7229  143.5851  160.5308 C.ar    1  UNL1        0.0653
      6 C         139.7561  142.8417  159.6576 C.ar    1  UNL1        0.0246
      7 N         135.5059  142.6721  155.4894 N.pl3   1  UNL1       -0.3289
      8 C         136.7633  142.0009  155.9570 C.ar    1  UNL1        0.1923
      9 N         137.7301  142.7444  156.8301 N.ar    1  UNL1       -0.2155
     10 C         138.9875  142.0733  157.2977 C.ar    1  UNL1        0.0868
     11 C         139.2780  140.6587  156.8921 C.ar    1  UNL1        0.0532
     12 C         140.4267  139.7432  157.1959 C.ar    1  UNL1        0.0233
     13 C         140.1698  138.4339  156.5105 C.ar    1  UNL1        0.0788
     14 N         138.8624  138.5402  155.7831 N.ar    1  UNL1       -0.2287
     15 C         138.3112  139.9152  156.0189 C.ar    1  UNL1        0.1439
     16 N         137.0538  140.5863  155.5513 N.ar    1  UNL1       -0.3123
     17 H         135.3152  143.6005  155.7556 H       1  UNL1        0.1451
     18 H         134.8714  142.1841  154.9163 H       1  UNL1        0.1451
     19 H         136.4192  140.0984  154.9782 H       1  UNL1        0.1700
     20 C         141.0636  137.2297  156.5463 C.2     1  UNL1       -0.0060
     21 C         140.7955  136.0694  155.6342 C.2     1  UNL1       -0.0115
     22 C         141.6892  134.8653  155.6699 C.3     1  UNL1        0.0987
     23 N         142.8509  134.8214  156.6178 N.3     1  UNL1       -0.2656
     24 C         143.1189  135.9816  157.5299 C.3     1  UNL1        0.0772
     25 C         142.2253  137.1858  157.4941 C.3     1  UNL1        0.0449
     26 C         143.7446  133.6172  156.6535 C.3     1  UNL1        0.1175
     27 C         144.1246  132.5488  155.6716 C.3     1  UNL1        0.1606
     28 O         145.0085  131.9143  156.7041 O.3     1  UNL1       -0.3507
     29 C         144.6285  132.9825  157.6860 C.3     1  UNL1        0.1606
     30 N         140.5246  143.6101  162.0174 N.ar    1  UNL1       -0.2733
     31 C         139.7698  144.7389  162.6545 C.ar    1  UNL1        0.0829
     32 C         139.5716  144.7639  164.1411 C.ar    1  UNL1        0.0193
     33 C         140.1282  143.6600  164.9906 C.ar    1  UNL1        0.0080
     34 C         139.9299  143.6850  166.4773 C.ar    1  UNL1       -0.0039
     35 C         140.4866  142.5811  167.3268 C.ar    1  UNL1       -0.0203
     36 C         141.2415  141.4523  166.6896 C.ar    1  UNL1        0.0255
     37 C         141.4397  141.4273  165.2030 C.ar    1  UNL1        0.1444
     38 F         142.1945  140.2985  164.5659 F       1  UNL1       -0.2040
     39 C         140.8830  142.5312  164.3535 C.ar    1  UNL1        0.0839
     40 C         141.0813  142.5063  162.8669 C.ar    1  UNL1        0.2668
     41 O         141.8362  141.3774  162.2298 O.2     1  UNL1       -0.2665
     42 C         140.2883  142.6061  168.8134 C.3     1  UNL1        0.0224
     43 C         139.9311  141.9011  170.0883 C.3     1  UNL1        0.0047
     44 C         140.3023  143.3542  170.1134 C.3     1  UNL1        0.0047
     45 C         138.5910  142.1232  160.2710 C.3     1  UNL1        0.1651
     46 O         137.4606  142.9043  160.8730 O.3     1  UNL1       -0.3772
     47 H         137.7802  143.3886  161.6503 H       1  UNL1        0.2109
@<TRIPOS>BOND
     1     7     8    1
     2     8     9   ar
     3     9    10   ar
     4    10     1    1
     5     1     2   ar
     6     2     3   ar
     7     3     4   ar
     8     4     5   ar
     9     5    30    1
    10    30    31   ar
    11    31    32   ar
    12    32    33   ar
    13    33    34   ar
    14    34    35   ar
    15    35    42    1
    16    42    43    1
    17    43    44    1
    18    35    36   ar
    19    36    37   ar
    20    37    38    1
    21    37    39   ar
    22    39    40   ar
    23    40    41    2
    24     5     6   ar
    25     6    45    1
    26    45    46    1
    27    10    11   ar
    28    11    12   ar
    29    12    13   ar
    30    13    20    1
    31    20    21    2
    32    21    22    1
    33    22    23    1
    34    23    26    1
    35    26    27    1
    36    27    28    1
    37    28    29    1
    38    23    24    1
    39    24    25    1
    40    13    14   ar
    41    14    15   ar
    42    15    16   ar
    43    16     8   ar
    44     6     1   ar
    45    15    11    1
    46    40    30   ar
    47    25    20    1
    48    39    33   ar
    49    29    26    1
    50    44    42    1
    51     7    17    1
    52     7    18    1
    53    46    47    1
    54    16    19    1
@<TRIPOS>MOLECULE
*****
 47 54 0 0 0
SMALL
GASTEIGER

@<TRIPOS>ATOM
      1 C         141.8557  139.2566  158.3187 C.ar    1  UNL1        0.0176
      2 C         140.4312  138.9866  157.9342 C.ar    1  UNL1        0.0014
      3 C         139.3324  139.1933  158.9343 C.ar    1  UNL1        0.0015
      4 C         139.6582  139.6700  160.3187 C.ar    1  UNL1        0.0174
      5 C         141.0827  139.9400  160.7031 C.ar    1  UNL1        0.0653
      6 C         142.1815  139.7333  159.7031 C.ar    1  UNL1        0.0246
      7 N         145.8525  141.1253  155.5741 N.pl3   1  UNL1       -0.3289
      8 C         144.9529  139.9843  155.9464 C.ar    1  UNL1        0.1923
      9 N         143.8541  140.1909  156.9464 N.ar    1  UNL1       -0.2155
     10 C         142.9545  139.0499  157.3187 C.ar    1  UNL1        0.0868
     11 C         143.1536  137.7022  156.6911 C.ar    1  UNL1        0.0532
     12 C         142.4294  136.3995  156.8599 C.ar    1  UNL1        0.0233
     13 C         143.0806  135.3876  155.9642 C.ar    1  UNL1        0.0788
     14 N         144.2072  136.0650  155.2419 N.ar    1  UNL1       -0.2287
     15 C         144.2524  137.4954  155.6911 C.ar    1  UNL1        0.1439
     16 N         145.1520  138.6365  155.3187 N.ar    1  UNL1       -0.3123
     17 H         145.7219  142.0099  155.9860 H       1  UNL1        0.1451
     18 H         146.5737  140.9896  154.9177 H       1  UNL1        0.1451
     19 H         145.8732  138.5008  154.6624 H       1  UNL1        0.1700
     20 C         142.6761  133.9507  155.8169 C.2     1  UNL1       -0.0060
     21 C         143.1383  132.9349  156.8191 C.2     1  UNL1       -0.0115
     22 C         142.7338  131.4980  156.6718 C.3     1  UNL1        0.0987
     23 N         141.8672  131.0769  155.5222 N.3     1  UNL1       -0.2656
     24 C         141.4050  132.0927  154.5200 C.3     1  UNL1        0.0772
     25 C         141.8095  133.5296  154.6673 C.3     1  UNL1        0.0449
     26 C         141.4627  129.6400  155.3748 C.3     1  UNL1        0.1175
     27 C         142.1548  128.3203  155.5468 C.3     1  UNL1        0.1606
     28 O         140.8907  127.6079  155.1664 O.3     1  UNL1       -0.3507
     29 C         140.1987  128.9275  154.9945 C.3     1  UNL1        0.1606
     30 N         141.4085  140.4167  162.0876 N.ar    1  UNL1       -0.2733
     31 C         141.4398  141.8862  162.3868 C.ar    1  UNL1        0.0829
     32 C         141.7655  142.3628  163.7713 C.ar    1  UNL1        0.0193
     33 C         142.0599  141.3699  164.8564 C.ar    1  UNL1        0.0080
     34 C         142.3857  141.8467  166.2409 C.ar    1  UNL1       -0.0039
     35 C         142.6801  140.8538  167.3261 C.ar    1  UNL1       -0.0203
     36 C         142.6488  139.3843  167.0267 C.ar    1  UNL1        0.0255
     37 C         142.3231  138.9076  165.6423 C.ar    1  UNL1        0.1444
     38 F         142.2918  137.4381  165.3431 F       1  UNL1       -0.2040
     39 C         142.0286  139.9005  164.5572 C.ar    1  UNL1        0.0839
     40 C         141.7029  139.4238  163.1727 C.ar    1  UNL1        0.2668
     41 O         141.6716  137.9543  162.8734 O.2     1  UNL1       -0.2665
     42 C         143.0059  141.3304  168.7105 C.3     1  UNL1        0.0224
     43 C         143.7409  142.2675  169.6224 C.3     1  UNL1        0.0047
     44 C         142.8350  141.2189  170.1965 C.3     1  UNL1        0.0047
     45 C         143.6060  140.0033  160.0876 C.3     1  UNL1        0.1651
     46 O         144.4516  138.9015  160.6543 O.3     1  UNL1       -0.3772
     47 H         144.0985  138.6341  161.5172 H       1  UNL1        0.2109
@<TRIPOS>BOND
     1     7     8    1
     2     8     9   ar
     3     9    10   ar
     4    10     1    1
     5     1     2   ar
     6     2     3   ar
     7     3     4   ar
     8     4     5   ar
     9     5    30    1
    10    30    31   ar
    11    31    32   ar
    12    32    33   ar
    13    33    34   ar
    14    34    35   ar
    15    35    42    1
    16    42    43    1
    17    43    44    1
    18    35    36   ar
    19    36    37   ar
    20    37    38    1
    21    37    39   ar
    22    39    40   ar
    23    40    41    2
    24     5     6   ar
    25     6    45    1
    26    45    46    1
    27    10    11   ar
    28    11    12   ar
    29    12    13   ar
    30    13    20    1
    31    20    21    2
    32    21    22    1
    33    22    23    1
    34    23    26    1
    35    26    27    1
    36    27    28    1
    37    28    29    1
    38    23    24    1
    39    24    25    1
    40    13    14   ar
    41    14    15   ar
    42    15    16   ar
    43    16     8   ar
    44     6     1   ar
    45    15    11    1
    46    40    30   ar
    47    25    20    1
    48    39    33   ar
    49    29    26    1
    50    44    42    1
    51     7    17    1
    52     7    18    1
    53    46    47    1
    54    16    19    1
@<TRIPOS>MOLECULE
*****
 47 54 0 0 0
SMALL
GASTEIGER

@<TRIPOS>ATOM
      1 C         140.7645  142.9159  158.3454 C.ar    1  UNL1        0.0176
      2 C         142.1837  143.0608  157.8819 C.ar    1  UNL1        0.0014
      3 C         143.2960  143.1404  158.8852 C.ar    1  UNL1        0.0015
      4 C         142.9891  143.0751  160.3520 C.ar    1  UNL1        0.0174
      5 C         141.5699  142.9303  160.8155 C.ar    1  UNL1        0.0653
      6 C         140.4576  142.8507  159.8123 C.ar    1  UNL1        0.0246
      7 N         137.1898  140.1323  155.8013 N.pl3   1  UNL1       -0.3289
      8 C         137.8649  141.4446  156.0702 C.ar    1  UNL1        0.1923
      9 N         138.9772  141.5241  157.0734 N.ar    1  UNL1       -0.2155
     10 C         139.6523  142.8364  157.3422 C.ar    1  UNL1        0.0868
     11 C         139.2151  144.0690  156.6078 C.ar    1  UNL1        0.0532
     12 C         139.6894  145.4910  156.6622 C.ar    1  UNL1        0.0233
     13 C         138.8703  146.2903  155.6925 C.ar    1  UNL1        0.0788
     14 N         137.8897  145.3623  155.0389 N.ar    1  UNL1       -0.2287
     15 C         138.1028  143.9895  155.6046 C.ar    1  UNL1        0.1439
     16 N         137.4277  142.6773  155.3357 N.ar    1  UNL1       -0.3123
     17 H         137.4768  139.3233  156.2833 H       1  UNL1        0.1451
     18 H         136.4598  140.0801  155.1429 H       1  UNL1        0.1451
     19 H         136.6977  142.6250  154.6773 H       1  UNL1        0.1700
     20 C         139.0077  147.7597  155.4238 C.2     1  UNL1       -0.0060
     21 C         138.4584  148.7556  156.4018 C.2     1  UNL1       -0.0115
     22 C         138.5958  150.2249  156.1331 C.3     1  UNL1        0.0987
     23 N         139.2823  150.6983  154.8863 N.3     1  UNL1       -0.2656
     24 C         139.8316  149.7024  153.9083 C.3     1  UNL1        0.0772
     25 C         139.6942  148.2331  154.1770 C.3     1  UNL1        0.0449
     26 C         139.4197  152.1676  154.6175 C.3     1  UNL1        0.1175
     27 C         140.3954  153.0211  153.8628 C.3     1  UNL1        0.1606
     28 O         139.6140  154.2455  154.2374 O.3     1  UNL1       -0.3507
     29 C         138.6384  153.3921  154.9921 C.3     1  UNL1        0.1606
     30 N         141.2630  142.8650  162.2824 N.ar    1  UNL1       -0.2733
     31 C         141.1019  144.1301  163.0719 C.ar    1  UNL1        0.0829
     32 C         140.7951  144.0648  164.5387 C.ar    1  UNL1        0.0193
     33 C         140.6492  142.7344  165.2160 C.ar    1  UNL1        0.0080
     34 C         140.3423  142.6691  166.6828 C.ar    1  UNL1       -0.0039
     35 C         140.1964  141.3386  167.3600 C.ar    1  UNL1       -0.0203
     36 C         140.3575  140.0735  166.5704 C.ar    1  UNL1        0.0255
     37 C         140.6644  140.1388  165.1036 C.ar    1  UNL1        0.1444
     38 F         140.8254  138.8736  164.3141 F       1  UNL1       -0.2040
     39 C         140.8102  141.4692  164.4264 C.ar    1  UNL1        0.0839
     40 C         141.1171  141.5345  162.9596 C.ar    1  UNL1        0.2668
     41 O         141.2782  140.2694  162.1700 O.2     1  UNL1       -0.2665
     42 C         139.8896  141.2733  168.8268 C.3     1  UNL1        0.0224
     43 C         139.4210  140.4986  170.0227 C.3     1  UNL1        0.0047
     44 C         139.8266  141.9350  170.1715 C.3     1  UNL1        0.0047
     45 C         139.0384  142.7058  160.2759 C.3     1  UNL1        0.1651
     46 O         138.3620  141.3684  160.2140 O.3     1  UNL1       -0.3772
     47 H         138.2582  141.1011  159.2873 H       1  UNL1        0.2109
@<TRIPOS>BOND
     1     7     8    1
     2     8     9   ar
     3     9    10   ar
     4    10     1    1
     5     1     2   ar
     6     2     3   ar
     7     3     4   ar
     8     4     5   ar
     9     5    30    1
    10    30    31   ar
    11    31    32   ar
    12    32    33   ar
    13    33    34   ar
    14    34    35   ar
    15    35    42    1
    16    42    43    1
    17    43    44    1
    18    35    36   ar
    19    36    37   ar
    20    37    38    1
    21    37    39   ar
    22    39    40   ar
    23    40    41    2
    24     5     6   ar
    25     6    45    1
    26    45    46    1
    27    10    11   ar
    28    11    12   ar
    29    12    13   ar
    30    13    20    1
    31    20    21    2
    32    21    22    1
    33    22    23    1
    34    23    26    1
    35    26    27    1
    36    27    28    1
    37    28    29    1
    38    23    24    1
    39    24    25    1
    40    13    14   ar
    41    14    15   ar
    42    15    16   ar
    43    16     8   ar
    44     6     1   ar
    45    15    11    1
    46    40    30   ar
    47    25    20    1
    48    39    33   ar
    49    29    26    1
    50    44    42    1
    51     7    17    1
    52     7    18    1
    53    46    47    1
    54    16    19    1
@<TRIPOS>MOLECULE
*****
 47 54 0 0 0
SMALL
GASTEIGER

@<TRIPOS>ATOM
      1 C         139.5213  141.3515  158.1710 C.ar    1  UNL1        0.0176
      2 C         140.8757  141.3548  157.5263 C.ar    1  UNL1        0.0014
      3 C         142.0982  141.0718  158.3481 C.ar    1  UNL1        0.0015
      4 C         141.9664  140.7855  159.8146 C.ar    1  UNL1        0.0174
      5 C         140.6120  140.7822  160.4593 C.ar    1  UNL1        0.0653
      6 C         139.3895  141.0652  159.6376 C.ar    1  UNL1        0.0246
      7 N         134.8303  139.9304  156.4464 N.pl3   1  UNL1       -0.3289
      8 C         135.9533  140.9240  156.4869 C.ar    1  UNL1        0.1923
      9 N         137.1758  140.6410  157.3087 N.ar    1  UNL1       -0.2155
     10 C         138.2988  141.6346  157.3492 C.ar    1  UNL1        0.0868
     11 C         138.1993  142.9111  156.5680 C.ar    1  UNL1        0.0532
     12 C         139.1391  144.0702  156.4152 C.ar    1  UNL1        0.0233
     13 C         138.4973  145.0696  155.4989 C.ar    1  UNL1        0.0788
     14 N         137.1610  144.5282  155.0855 N.ar    1  UNL1       -0.2287
     15 C         136.9768  143.1942  155.7462 C.ar    1  UNL1        0.1439
     16 N         135.8537  142.2006  155.7056 N.ar    1  UNL1       -0.3123
     17 H         134.8956  139.0925  156.9592 H       1  UNL1        0.1451
     18 H         134.0279  140.1162  155.9071 H       1  UNL1        0.1451
     19 H         135.0514  142.3864  155.1663 H       1  UNL1        0.1700
     20 C         139.0883  146.3803  155.0713 C.2     1  UNL1       -0.0060
     21 C         138.6390  147.6541  155.7237 C.2     1  UNL1       -0.0115
     22 C         139.2299  148.9648  155.2961 C.3     1  UNL1        0.0987
     23 N         140.2701  149.0017  154.2160 N.3     1  UNL1       -0.2656
     24 C         140.7194  147.7280  153.5636 C.3     1  UNL1        0.0772
     25 C         140.1285  146.4173  153.9912 C.3     1  UNL1        0.0449
     26 C         140.8611  150.3124  153.7884 C.3     1  UNL1        0.1175
     27 C         141.1264  150.9764  152.4697 C.3     1  UNL1        0.1606
     28 O         141.6968  152.1660  153.1836 O.3     1  UNL1       -0.3507
     29 C         141.4315  151.5020  154.5021 C.3     1  UNL1        0.1606
     30 N         140.4802  140.4959  161.9259 N.ar    1  UNL1       -0.2733
     31 C         140.2797  139.0870  162.3999 C.ar    1  UNL1        0.0829
     32 C         140.1479  138.8008  163.8664 C.ar    1  UNL1        0.0193
     33 C         140.2165  139.9235  164.8589 C.ar    1  UNL1        0.0080
     34 C         140.0847  139.6372  166.3254 C.ar    1  UNL1       -0.0039
     35 C         140.1533  140.7598  167.3179 C.ar    1  UNL1       -0.0203
     36 C         140.3538  142.1688  166.8437 C.ar    1  UNL1        0.0255
     37 C         140.4856  142.4550  165.3772 C.ar    1  UNL1        0.1444
     38 F         140.6861  143.8639  164.9032 F       1  UNL1       -0.2040
     39 C         140.4170  141.3324  164.3848 C.ar    1  UNL1        0.0839
     40 C         140.5488  141.6186  162.9183 C.ar    1  UNL1        0.2668
     41 O         140.7493  143.0276  162.4442 O.2     1  UNL1       -0.2665
     42 C         140.0215  140.4736  168.7844 C.3     1  UNL1        0.0224
     43 C         139.2321  140.5520  170.0574 C.3     1  UNL1        0.0047
     44 C         140.5826  139.8993  170.0514 C.3     1  UNL1        0.0047
     45 C         138.0351  141.0620  160.2823 C.3     1  UNL1        0.1651
     46 O         137.2225  139.8015  160.3137 O.3     1  UNL1       -0.3772
     47 H         136.9724  139.5554  159.4094 H       1  UNL1        0.2109
@<TRIPOS>BOND
     1     7     8    1
     2     8     9   ar
     3     9    10   ar
     4    10     1    1
     5     1     2   ar
     6     2     3   ar
     7     3     4   ar
     8     4     5   ar
     9     5    30    1
    10    30    31   ar
    11    31    32   ar
    12    32    33   ar
    13    33    34   ar
    14    34    35   ar
    15    35    42    1
    16    42    43    1
    17    43    44    1
    18    35    36   ar
    19    36    37   ar
    20    37    38    1
    21    37    39   ar
    22    39    40   ar
    23    40    41    2
    24     5     6   ar
    25     6    45    1
    26    45    46    1
    27    10    11   ar
    28    11    12   ar
    29    12    13   ar
    30    13    20    1
    31    20    21    2
    32    21    22    1
    33    22    23    1
    34    23    26    1
    35    26    27    1
    36    27    28    1
    37    28    29    1
    38    23    24    1
    39    24    25    1
    40    13    14   ar
    41    14    15   ar
    42    15    16   ar
    43    16     8   ar
    44     6     1   ar
    45    15    11    1
    46    40    30   ar
    47    25    20    1
    48    39    33   ar
    49    29    26    1
    50    44    42    1
    51     7    17    1
    52     7    18    1
    53    46    47    1
    54    16    19    1
