@<TRIPOS>MOLECULE
*****
 34 38 0 0 0
SMALL
GASTEIGER

@<TRIPOS>ATOM
      1 N         139.6513  141.2545  159.6728 N.3     1  UNL1       -0.2673
      2 C         140.5795  140.1088  159.9483 C.3     1  UNL1        0.1035
      3 C         140.3687  139.2470  161.1577 C.3     1  UNL1        0.1470
      4 C         140.1579  138.3851  162.3672 C.3     1  UNL1        0.1037
      5 N         139.0190  138.6690  163.3012 N.3     1  UNL1       -0.2646
      6 C         138.0908  139.8148  163.0256 C.3     1  UNL1        0.1037
      7 C         138.3016  140.6766  161.8162 C.3     1  UNL1        0.1470
      8 C         138.5124  141.5384  160.6067 C.3     1  UNL1        0.1035
      9 O         139.2298  139.5309  162.0917 O.3     1  UNL1       -0.3530
     10 C         139.8621  142.1163  158.4633 C.3     1  UNL1        0.0913
     11 C         139.2636  143.4906  158.4081 C.3     1  UNL1        0.1087
     12 N         140.0662  144.6767  158.8546 N.3     1  UNL1       -0.1780
     13 H         140.6829  144.9232  158.0804 H       1  UNL1        0.1488
     14 S         140.9262  144.5821  160.0799 S.O2    1  UNL1        0.0603
     15 O         142.1478  144.4840  159.2151 O.2     1  UNL1       -0.1530
     16 O         139.7046  144.6801  160.9448 O.2     1  UNL1       -0.1530
     17 C         143.5061  144.2982  163.7560 C.ar    1  UNL1        0.0685
     18 C         142.2295  145.0848  163.7946 C.ar    1  UNL1        0.0116
     19 C         141.3695  145.1795  162.5692 C.ar    1  UNL1        0.0206
     20 C         141.7861  144.4874  161.3053 C.ar    1  UNL1        0.1220
     21 C         143.0627  143.7007  161.2667 C.ar    1  UNL1        0.0206
     22 C         143.9227  143.6061  162.4921 C.ar    1  UNL1        0.0116
     23 N         145.2259  144.1089  166.2068 N.1     1  UNL1       -0.1908
     24 C         144.3660  144.2036  164.9813 C.1     1  UNL1        0.1004
     25 C         138.8082  137.8072  164.5106 C.3     1  UNL1        0.1025
     26 C         138.7148  138.4332  165.8706 C.ar    1  UNL1        0.0344
     27 C         137.6433  138.1753  166.8881 C.ar    1  UNL1        0.1766
     28 O         137.9427  139.0097  168.0982 O.2     1  UNL1       -0.4507
     29 C         139.1992  139.7833  167.8285 C.ar    1  UNL1        0.1452
     30 C         139.9706  140.7661  168.6586 C.ar    1  UNL1        0.0375
     31 C         141.2190  141.3925  168.1120 C.ar    1  UNL1        0.0031
     32 C         141.6962  141.0363  166.7352 C.ar    1  UNL1        0.0002
     33 C         140.9249  140.0535  165.9051 C.ar    1  UNL1        0.0029
     34 C         139.6764  139.4270  166.4517 C.ar    1  UNL1        0.0349
@<TRIPOS>BOND
     1    23    24    3
     2    24    17    1
     3    17    18   ar
     4    18    19   ar
     5    19    20   ar
     6    20    14    1
     7    14    15    2
     8    14    16    2
     9    14    12    1
    10    12    11    1
    11    11    10    1
    12    10     1    1
    13     1     2    1
    14     2     3    1
    15     3     4    1
    16     4     5    1
    17     5    25    1
    18    25    26    1
    19    26    27   ar
    20    27    28   ar
    21    28    29   ar
    22    29    30   ar
    23    30    31   ar
    24    31    32   ar
    25    32    33   ar
    26    33    34   ar
    27     5     6    1
    28     6     7    1
    29     7     8    1
    30     7     9    1
    31    20    21   ar
    32    21    22   ar
    33    22    17   ar
    34     8     1    1
    35     9     3    1
    36    34    26   ar
    37    34    29   ar
    38    12    13    1
@<TRIPOS>MOLECULE
*****
 34 38 0 0 0
SMALL
GASTEIGER

@<TRIPOS>ATOM
      1 N         140.3234  139.1204  158.8462 N.3     1  UNL1       -0.2673
      2 C         139.5210  138.4132  159.8979 C.3     1  UNL1        0.1035
      3 C         138.7918  139.2043  160.9431 C.3     1  UNL1        0.1470
      4 C         138.0625  139.9954  161.9883 C.3     1  UNL1        0.1037
      5 N         138.1356  141.4936  161.9817 N.3     1  UNL1       -0.2646
      6 C         138.9380  142.2007  160.9299 C.3     1  UNL1        0.1037
      7 C         139.6672  141.4096  159.8847 C.3     1  UNL1        0.1470
      8 C         140.3965  140.6186  158.8396 C.3     1  UNL1        0.1035
      9 O         138.8649  140.7025  160.9365 O.3     1  UNL1       -0.3530
     10 C         141.0527  138.3293  157.8010 C.3     1  UNL1        0.0913
     11 C         142.4344  137.8153  158.0777 C.3     1  UNL1        0.1087
     12 N         143.4107  138.6615  158.8400 N.3     1  UNL1       -0.1780
     13 H         144.3437  138.3512  158.5688 H       1  UNL1        0.1488
     14 S         143.3784  138.6773  160.3395 S.O2    1  UNL1        0.0603
     15 O         143.8446  140.1029  160.3345 O.2     1  UNL1       -0.1530
     16 O         142.9122  137.2516  160.3445 O.2     1  UNL1       -0.1530
     17 C         143.2816  138.7246  164.8382 C.ar    1  UNL1        0.0685
     18 C         144.3889  139.4215  164.1045 C.ar    1  UNL1        0.0116
     19 C         144.4212  139.4057  162.6049 C.ar    1  UNL1        0.0206
     20 C         143.3462  138.6931  161.8391 C.ar    1  UNL1        0.1220
     21 C         142.2389  137.9962  162.5729 C.ar    1  UNL1        0.0206
     22 C         142.2066  138.0120  164.0724 C.ar    1  UNL1        0.0116
     23 N         143.2172  138.7563  167.8374 N.1     1  UNL1       -0.1908
     24 C         143.2494  138.7404  166.3378 C.1     1  UNL1        0.1004
     25 C         137.4064  142.2847  163.0268 C.3     1  UNL1        0.1025
     26 C         138.1704  142.9475  164.1346 C.ar    1  UNL1        0.0344
     27 C         138.2557  144.4238  164.3861 C.ar    1  UNL1        0.1766
     28 O         139.1212  144.6392  165.5923 O.2     1  UNL1       -0.4507
     29 C         139.5706  143.2960  166.0861 C.ar    1  UNL1        0.1452
     30 C         140.4391  142.8898  167.2397 C.ar    1  UNL1        0.0375
     31 C         140.7198  141.4382  167.4924 C.ar    1  UNL1        0.0031
     32 C         140.1322  140.3926  166.5915 C.ar    1  UNL1        0.0002
     33 C         139.2637  140.7988  165.4379 C.ar    1  UNL1        0.0029
     34 C         138.9830  142.2505  165.1852 C.ar    1  UNL1        0.0349
@<TRIPOS>BOND
     1    23    24    3
     2    24    17    1
     3    17    18   ar
     4    18    19   ar
     5    19    20   ar
     6    20    14    1
     7    14    15    2
     8    14    16    2
     9    14    12    1
    10    12    11    1
    11    11    10    1
    12    10     1    1
    13     1     2    1
    14     2     3    1
    15     3     4    1
    16     4     5    1
    17     5    25    1
    18    25    26    1
    19    26    27   ar
    20    27    28   ar
    21    28    29   ar
    22    29    30   ar
    23    30    31   ar
    24    31    32   ar
    25    32    33   ar
    26    33    34   ar
    27     5     6    1
    28     6     7    1
    29     7     8    1
    30     7     9    1
    31    20    21   ar
    32    21    22   ar
    33    22    17   ar
    34     8     1    1
    35     9     3    1
    36    34    26   ar
    37    34    29   ar
    38    12    13    1
@<TRIPOS>MOLECULE
*****
 34 38 0 0 0
SMALL
GASTEIGER

@<TRIPOS>ATOM
      1 N         141.1417  138.5087  161.0334 N.3     1  UNL1       -0.2673
      2 C         140.4270  137.7977  162.1440 C.3     1  UNL1        0.1035
      3 C         141.0014  137.8026  163.5297 C.3     1  UNL1        0.1470
      4 C         141.5758  137.8075  164.9154 C.3     1  UNL1        0.1037
      5 N         142.8649  138.5234  165.1903 N.3     1  UNL1       -0.2646
      6 C         143.5796  139.2344  164.0796 C.3     1  UNL1        0.1037
      7 C         143.0052  139.2295  162.6940 C.3     1  UNL1        0.1470
      8 C         142.4308  139.2246  161.3083 C.3     1  UNL1        0.1035
      9 O         142.2905  138.5185  163.8046 O.3     1  UNL1       -0.3530
     10 C         140.5673  138.5038  159.6477 C.3     1  UNL1        0.0913
     11 C         139.1358  138.8940  159.4278 C.3     1  UNL1        0.1087
     12 N         138.7692  140.3391  159.2621 N.3     1  UNL1       -0.1780
     13 H         139.4808  140.7565  158.6623 H       1  UNL1        0.1488
     14 S         138.6448  141.2241  160.4668 S.O2    1  UNL1        0.0603
     15 O         137.7578  140.2075  161.1221 O.2     1  UNL1       -0.1530
     16 O         139.5318  142.2408  159.8114 O.2     1  UNL1       -0.1530
     17 C         138.2716  143.8794  164.0806 C.ar    1  UNL1        0.0685
     18 C         137.6745  142.5035  164.0961 C.ar    1  UNL1        0.0116
     19 C         137.7989  141.6184  162.8914 C.ar    1  UNL1        0.0206
     20 C         138.5204  142.1092  161.6714 C.ar    1  UNL1        0.1220
     21 C         139.1176  143.4852  161.6560 C.ar    1  UNL1        0.0206
     22 C         138.9932  144.3703  162.8606 C.ar    1  UNL1        0.0116
     23 N         138.0228  145.6496  166.4899 N.1     1  UNL1       -0.1908
     24 C         138.1472  144.7645  165.2853 C.1     1  UNL1        0.1004
     25 C         143.4393  138.5283  166.5760 C.3     1  UNL1        0.1025
     26 C         142.7425  139.2757  167.6741 C.ar    1  UNL1        0.0344
     27 C         142.6967  138.8783  169.1198 C.ar    1  UNL1        0.1766
     28 O         141.8950  139.9086  169.8586 O.2     1  UNL1       -0.4507
     29 C         141.4453  140.9428  168.8694 C.ar    1  UNL1        0.1452
     30 C         140.6266  142.1901  169.0236 C.ar    1  UNL1        0.0375
     31 C         140.3317  143.0462  167.8279 C.ar    1  UNL1        0.0031
     32 C         140.8554  142.6551  166.4777 C.ar    1  UNL1        0.0002
     33 C         141.6741  141.4077  166.3235 C.ar    1  UNL1        0.0029
     34 C         141.9691  140.5516  167.5194 C.ar    1  UNL1        0.0349
@<TRIPOS>BOND
     1    23    24    3
     2    24    17    1
     3    17    18   ar
     4    18    19   ar
     5    19    20   ar
     6    20    14    1
     7    14    15    2
     8    14    16    2
     9    14    12    1
    10    12    11    1
    11    11    10    1
    12    10     1    1
    13     1     2    1
    14     2     3    1
    15     3     4    1
    16     4     5    1
    17     5    25    1
    18    25    26    1
    19    26    27   ar
    20    27    28   ar
    21    28    29   ar
    22    29    30   ar
    23    30    31   ar
    24    31    32   ar
    25    32    33   ar
    26    33    34   ar
    27     5     6    1
    28     6     7    1
    29     7     8    1
    30     7     9    1
    31    20    21   ar
    32    21    22   ar
    33    22    17   ar
    34     8     1    1
    35     9     3    1
    36    34    26   ar
    37    34    29   ar
    38    12    13    1
@<TRIPOS>MOLECULE
*****
 34 38 0 0 0
SMALL
GASTEIGER

@<TRIPOS>ATOM
      1 N         144.3017  141.8895  159.9050 N.3     1  UNL1       -0.2673
      2 C         143.7528  140.4947  159.9611 C.3     1  UNL1        0.1035
      3 C         143.5910  139.8051  161.2833 C.3     1  UNL1        0.1470
      4 C         143.4292  139.1153  162.6055 C.3     1  UNL1        0.1037
      5 N         143.8164  139.8205  163.8715 N.3     1  UNL1       -0.2646
      6 C         144.3654  141.2153  163.8154 C.3     1  UNL1        0.1037
      7 C         144.5272  141.9050  162.4932 C.3     1  UNL1        0.1470
      8 C         144.6889  142.5946  161.1710 C.3     1  UNL1        0.1035
      9 O         143.9782  140.5102  162.5493 O.3     1  UNL1       -0.3530
     10 C         144.4635  142.5792  158.5828 C.3     1  UNL1        0.0913
     11 C         143.3256  142.6045  157.6059 C.3     1  UNL1        0.1087
     12 N         142.2391  143.6292  157.7463 N.3     1  UNL1       -0.1780
     13 H         142.6316  144.5186  157.4375 H       1  UNL1        0.1488
     14 S         141.6089  143.8755  159.0850 S.O2    1  UNL1        0.0603
     15 O         142.2365  145.2371  159.1300 O.2     1  UNL1       -0.1530
     16 O         140.9813  142.5139  159.0400 O.2     1  UNL1       -0.1530
     17 C         139.7183  144.6142  163.1011 C.ar    1  UNL1        0.0685
     18 C         139.7906  145.7210  162.0913 C.ar    1  UNL1        0.0116
     19 C         140.4209  145.4747  160.7526 C.ar    1  UNL1        0.0206
     20 C         140.9787  144.1217  160.4237 C.ar    1  UNL1        0.1220
     21 C         140.9063  143.0149  161.4336 C.ar    1  UNL1        0.0206
     22 C         140.2761  143.2612  162.7723 C.ar    1  UNL1        0.0116
     23 N         138.4578  145.1067  165.7786 N.1     1  UNL1       -0.1908
     24 C         139.0880  144.8604  164.4398 C.1     1  UNL1        0.1004
     25 C         143.6547  139.1308  165.1937 C.3     1  UNL1        0.1025
     26 C         142.5403  139.5286  166.1157 C.ar    1  UNL1        0.0344
     27 C         142.6666  140.4111  167.3221 C.ar    1  UNL1        0.1766
     28 O         141.3084  140.5416  167.9452 O.2     1  UNL1       -0.4507
     29 C         140.3426  139.7397  167.1239 C.ar    1  UNL1        0.1452
     30 C         138.8684  139.4987  167.2595 C.ar    1  UNL1        0.0375
     31 C         138.1555  138.6317  166.2646 C.ar    1  UNL1        0.0031
     32 C         138.9169  138.0056  165.1338 C.ar    1  UNL1        0.0002
     33 C         140.3911  138.2466  164.9982 C.ar    1  UNL1        0.0029
     34 C         141.1040  139.1136  165.9932 C.ar    1  UNL1        0.0349
@<TRIPOS>BOND
     1    23    24    3
     2    24    17    1
     3    17    18   ar
     4    18    19   ar
     5    19    20   ar
     6    20    14    1
     7    14    15    2
     8    14    16    2
     9    14    12    1
    10    12    11    1
    11    11    10    1
    12    10     1    1
    13     1     2    1
    14     2     3    1
    15     3     4    1
    16     4     5    1
    17     5    25    1
    18    25    26    1
    19    26    27   ar
    20    27    28   ar
    21    28    29   ar
    22    29    30   ar
    23    30    31   ar
    24    31    32   ar
    25    32    33   ar
    26    33    34   ar
    27     5     6    1
    28     6     7    1
    29     7     8    1
    30     7     9    1
    31    20    21   ar
    32    21    22   ar
    33    22    17   ar
    34     8     1    1
    35     9     3    1
    36    34    26   ar
    37    34    29   ar
    38    12    13    1
@<TRIPOS>MOLECULE
*****
 34 38 0 0 0
SMALL
GASTEIGER

@<TRIPOS>ATOM
      1 N         140.0248  142.5325  159.5145 N.3     1  UNL1       -0.2673
      2 C         141.0317  141.4837  159.8835 C.3     1  UNL1        0.1035
      3 C         140.7117  140.4793  160.9505 C.3     1  UNL1        0.1470
      4 C         140.3917  139.4748  162.0177 C.3     1  UNL1        0.1037
      5 N         139.0648  139.5191  162.7157 N.3     1  UNL1       -0.2646
      6 C         138.0579  140.5679  162.3467 C.3     1  UNL1        0.1037
      7 C         138.3779  141.5724  161.2797 C.3     1  UNL1        0.1470
      8 C         138.6979  142.5768  160.2126 C.3     1  UNL1        0.1035
      9 O         139.3848  140.5236  161.6486 O.3     1  UNL1       -0.3530
     10 C         140.3448  143.5370  158.4474 C.3     1  UNL1        0.0913
     11 C         140.3932  144.9981  158.7831 C.3     1  UNL1        0.1087
     12 N         141.2981  145.4872  159.8750 N.3     1  UNL1       -0.1780
     13 H         142.2474  145.2239  159.6108 H       1  UNL1        0.1488
     14 S         141.0946  145.0168  161.2846 S.O2    1  UNL1        0.0603
     15 O         142.4712  144.4211  161.2845 O.2     1  UNL1       -0.1530
     16 O         139.7180  145.6125  161.2848 O.2     1  UNL1       -0.1530
     17 C         140.4843  143.6054  165.5137 C.ar    1  UNL1        0.0685
     18 C         139.5030  144.5532  164.8905 C.ar    1  UNL1        0.0116
     19 C         139.7064  145.0237  163.4807 C.ar    1  UNL1        0.0206
     20 C         140.8911  144.5463  162.6943 C.ar    1  UNL1        0.1220
     21 C         141.8725  143.5984  163.3177 C.ar    1  UNL1        0.0206
     22 C         141.6690  143.1279  164.7273 C.ar    1  UNL1        0.0116
     23 N         140.0774  142.6644  168.3332 N.1     1  UNL1       -0.1908
     24 C         140.2808  143.1349  166.9234 C.1     1  UNL1        0.1004
     25 C         138.7448  138.5147  163.7828 C.3     1  UNL1        0.1025
     26 C         139.0204  138.8357  165.2220 C.ar    1  UNL1        0.0344
     27 C         138.0016  138.9032  166.3209 C.ar    1  UNL1        0.1766
     28 O         138.7146  139.2548  167.5930 O.2     1  UNL1       -0.4507
     29 C         140.1740  139.4046  167.2801 C.ar    1  UNL1        0.1452
     30 C         141.3552  139.7435  168.1402 C.ar    1  UNL1        0.0375
     31 C         142.7253  139.8233  167.5351 C.ar    1  UNL1        0.0031
     32 C         142.9144  139.5643  166.0697 C.ar    1  UNL1        0.0002
     33 C         141.7331  139.2254  165.2096 C.ar    1  UNL1        0.0029
     34 C         140.3629  139.1456  165.8148 C.ar    1  UNL1        0.0349
@<TRIPOS>BOND
     1    23    24    3
     2    24    17    1
     3    17    18   ar
     4    18    19   ar
     5    19    20   ar
     6    20    14    1
     7    14    15    2
     8    14    16    2
     9    14    12    1
    10    12    11    1
    11    11    10    1
    12    10     1    1
    13     1     2    1
    14     2     3    1
    15     3     4    1
    16     4     5    1
    17     5    25    1
    18    25    26    1
    19    26    27   ar
    20    27    28   ar
    21    28    29   ar
    22    29    30   ar
    23    30    31   ar
    24    31    32   ar
    25    32    33   ar
    26    33    34   ar
    27     5     6    1
    28     6     7    1
    29     7     8    1
    30     7     9    1
    31    20    21   ar
    32    21    22   ar
    33    22    17   ar
    34     8     1    1
    35     9     3    1
    36    34    26   ar
    37    34    29   ar
    38    12    13    1
@<TRIPOS>MOLECULE
*****
 34 38 0 0 0
SMALL
GASTEIGER

@<TRIPOS>ATOM
      1 N         143.1137  138.6044  165.4037 N.3     1  UNL1       -0.2673
      2 C         144.1274  139.1692  164.4533 C.3     1  UNL1        0.1035
      3 C         143.8969  139.0845  162.9735 C.3     1  UNL1        0.1470
      4 C         143.6663  138.9999  161.4937 C.3     1  UNL1        0.1037
      5 N         142.4220  138.3505  160.9645 N.3     1  UNL1       -0.2646
      6 C         141.4083  137.7857  161.9151 C.3     1  UNL1        0.1037
      7 C         141.6389  137.8704  163.3948 C.3     1  UNL1        0.1470
      8 C         141.8695  137.9550  164.8745 C.3     1  UNL1        0.1035
      9 O         142.6526  138.4351  162.4443 O.3     1  UNL1       -0.3530
     10 C         143.3443  138.6891  166.8835 C.3     1  UNL1        0.0913
     11 C         142.3954  139.4660  167.7472 C.3     1  UNL1        0.1087
     12 N         142.5424  140.9536  167.8731 N.3     1  UNL1       -0.1780
     13 H         142.0830  141.2222  168.7433 H       1  UNL1        0.1488
     14 S         142.0018  141.8539  166.8021 S.O2    1  UNL1        0.0603
     15 O         140.6055  141.4329  167.1530 O.2     1  UNL1       -0.1530
     16 O         143.3980  142.2749  166.4512 O.2     1  UNL1       -0.1530
     17 C         140.3799  144.5551  163.5892 C.ar    1  UNL1        0.0685
     18 C         139.5456  144.2390  164.7950 C.ar    1  UNL1        0.0116
     19 C         140.0862  143.3386  165.8660 C.ar    1  UNL1        0.0206
     20 C         141.4611  142.7543  165.7312 C.ar    1  UNL1        0.1220
     21 C         142.2954  143.0704  164.5253 C.ar    1  UNL1        0.0206
     22 C         141.7548  143.9708  163.4543 C.ar    1  UNL1        0.0116
     23 N         139.2986  146.3559  161.4472 N.1     1  UNL1       -0.1908
     24 C         139.8393  145.4555  162.5182 C.1     1  UNL1        0.1004
     25 C         142.1915  138.2658  159.4848 C.3     1  UNL1        0.1025
     26 C         140.9391  138.8354  158.8870 C.ar    1  UNL1        0.0344
     27 C         140.0501  138.1547  157.8888 C.ar    1  UNL1        0.1766
     28 O         138.9174  139.0842  157.5674 O.2     1  UNL1       -0.4507
     29 C         139.1064  140.3391  158.3671 C.ar    1  UNL1        0.1452
     30 C         138.3022  141.6021  158.4580 C.ar    1  UNL1        0.0375
     31 C         138.7474  142.7111  159.3644 C.ar    1  UNL1        0.0031
     32 C         139.9969  142.5573  160.1800 C.ar    1  UNL1        0.0002
     33 C         140.8011  141.2944  160.0891 C.ar    1  UNL1        0.0029
     34 C         140.3558  140.1853  159.1826 C.ar    1  UNL1        0.0349
@<TRIPOS>BOND
     1    23    24    3
     2    24    17    1
     3    17    18   ar
     4    18    19   ar
     5    19    20   ar
     6    20    14    1
     7    14    15    2
     8    14    16    2
     9    14    12    1
    10    12    11    1
    11    11    10    1
    12    10     1    1
    13     1     2    1
    14     2     3    1
    15     3     4    1
    16     4     5    1
    17     5    25    1
    18    25    26    1
    19    26    27   ar
    20    27    28   ar
    21    28    29   ar
    22    29    30   ar
    23    30    31   ar
    24    31    32   ar
    25    32    33   ar
    26    33    34   ar
    27     5     6    1
    28     6     7    1
    29     7     8    1
    30     7     9    1
    31    20    21   ar
    32    21    22   ar
    33    22    17   ar
    34     8     1    1
    35     9     3    1
    36    34    26   ar
    37    34    29   ar
    38    12    13    1
@<TRIPOS>MOLECULE
*****
 34 38 0 0 0
SMALL
GASTEIGER

@<TRIPOS>ATOM
      1 N         144.1279  141.2400  160.7252 N.3     1  UNL1       -0.2673
      2 C         143.4520  139.9086  160.8677 C.3     1  UNL1        0.1035
      3 C         143.1508  139.3627  162.2320 C.3     1  UNL1        0.1470
      4 C         142.8496  138.8167  163.5963 C.3     1  UNL1        0.1037
      5 N         143.2243  139.6023  164.8180 N.3     1  UNL1       -0.2646
      6 C         143.9001  140.9338  164.6754 C.3     1  UNL1        0.1037
      7 C         144.2013  141.4797  163.3111 C.3     1  UNL1        0.1470
      8 C         144.5025  142.0256  161.9469 C.3     1  UNL1        0.1035
      9 O         143.5255  140.1482  163.4537 O.3     1  UNL1       -0.3530
     10 C         144.4291  141.7860  159.3609 C.3     1  UNL1        0.0913
     11 C         143.6419  142.9456  158.8265 C.3     1  UNL1        0.1087
     12 N         142.1440  142.9355  158.9059 N.3     1  UNL1       -0.1780
     13 H         141.8057  143.5494  158.1649 H       1  UNL1        0.1488
     14 S         141.4571  143.3624  160.1692 S.O2    1  UNL1        0.0603
     15 O         142.2545  144.6329  160.1735 O.2     1  UNL1       -0.1530
     16 O         140.6596  142.0920  160.1649 O.2     1  UNL1       -0.1530
     17 C         139.3963  144.6431  163.9590 C.ar    1  UNL1        0.0685
     18 C         138.5957  144.0736  162.8257 C.ar    1  UNL1        0.0116
     19 C         139.2826  143.6467  161.5623 C.ar    1  UNL1        0.0206
     20 C         140.7701  143.7893  161.4324 C.ar    1  UNL1        0.1220
     21 C         141.5708  144.3589  162.5659 C.ar    1  UNL1        0.0206
     22 C         140.8839  144.7858  163.8292 C.ar    1  UNL1        0.0116
     23 N         138.0225  145.4969  166.4856 N.1     1  UNL1       -0.1908
     24 C         138.7094  145.0700  165.2223 C.1     1  UNL1        0.1004
     25 C         142.9231  139.0564  166.1822 C.3     1  UNL1        0.1025
     26 C         141.6764  139.4798  166.9011 C.ar    1  UNL1        0.0344
     27 C         140.2965  139.5342  166.3155 C.ar    1  UNL1        0.1766
     28 O         139.3580  140.0111  167.3842 O.2     1  UNL1       -0.4507
     29 C         140.1581  140.2515  168.6301 C.ar    1  UNL1        0.1452
     30 C         139.7670  140.7269  169.9979 C.ar    1  UNL1        0.0375
     31 C         140.8086  140.8740  171.0671 C.ar    1  UNL1        0.0031
     32 C         142.2415  140.5456  170.7685 C.ar    1  UNL1        0.0002
     33 C         142.6326  140.0701  169.4007 C.ar    1  UNL1        0.0029
     34 C         141.5909  139.9231  168.3315 C.ar    1  UNL1        0.0349
@<TRIPOS>BOND
     1    23    24    3
     2    24    17    1
     3    17    18   ar
     4    18    19   ar
     5    19    20   ar
     6    20    14    1
     7    14    15    2
     8    14    16    2
     9    14    12    1
    10    12    11    1
    11    11    10    1
    12    10     1    1
    13     1     2    1
    14     2     3    1
    15     3     4    1
    16     4     5    1
    17     5    25    1
    18    25    26    1
    19    26    27   ar
    20    27    28   ar
    21    28    29   ar
    22    29    30   ar
    23    30    31   ar
    24    31    32   ar
    25    32    33   ar
    26    33    34   ar
    27     5     6    1
    28     6     7    1
    29     7     8    1
    30     7     9    1
    31    20    21   ar
    32    21    22   ar
    33    22    17   ar
    34     8     1    1
    35     9     3    1
    36    34    26   ar
    37    34    29   ar
    38    12    13    1
@<TRIPOS>MOLECULE
*****
 34 38 0 0 0
SMALL
GASTEIGER

@<TRIPOS>ATOM
      1 N         140.2394  139.4836  159.2348 N.3     1  UNL1       -0.2673
      2 C         138.8390  139.5556  159.7675 C.3     1  UNL1        0.1035
      3 C         138.5201  138.9858  161.1179 C.3     1  UNL1        0.1470
      4 C         138.2011  138.4160  162.4683 C.3     1  UNL1        0.1037
      5 N         139.2825  137.7741  163.2860 N.3     1  UNL1       -0.2646
      6 C         140.6829  137.7020  162.7532 C.3     1  UNL1        0.1037
      7 C         141.0018  138.2719  161.4028 C.3     1  UNL1        0.1470
      8 C         141.3208  138.8417  160.0525 C.3     1  UNL1        0.1035
      9 O         139.6015  138.3439  161.9355 O.3     1  UNL1       -0.3530
     10 C         140.5584  140.0534  157.8844 C.3     1  UNL1        0.0913
     11 C         141.0997  141.4474  157.7674 C.3     1  UNL1        0.1087
     12 N         140.1925  142.6241  157.9735 N.3     1  UNL1       -0.1780
     13 H         140.6228  143.4151  157.4945 H       1  UNL1        0.1488
     14 S         139.8657  143.0849  159.3630 S.O2    1  UNL1        0.0603
     15 O         141.3286  143.1358  159.6902 O.2     1  UNL1       -0.1530
     16 O         138.4027  143.0340  159.0358 O.2     1  UNL1       -0.1530
     17 C         138.8853  144.4673  163.5316 C.ar    1  UNL1        0.0685
     18 C         139.9898  145.1292  162.7623 C.ar    1  UNL1        0.0116
     19 C         140.3166  144.6684  161.3727 C.ar    1  UNL1        0.0206
     20 C         139.5389  143.5457  160.7525 C.ar    1  UNL1        0.1220
     21 C         138.4343  142.8837  161.5219 C.ar    1  UNL1        0.0206
     22 C         138.1076  143.3445  162.9114 C.ar    1  UNL1        0.0116
     23 N         138.2317  145.3888  166.3108 N.1     1  UNL1       -0.1908
     24 C         138.5585  144.9280  164.9212 C.1     1  UNL1        0.1004
     25 C         138.9635  137.2043  164.6363 C.3     1  UNL1        0.1025
     26 C         138.8442  138.1122  165.8244 C.ar    1  UNL1        0.0344
     27 C         137.7322  138.1053  166.8311 C.ar    1  UNL1        0.1766
     28 O         138.0166  139.1753  167.8433 O.2     1  UNL1       -0.4507
     29 C         139.3044  139.8434  167.4620 C.ar    1  UNL1        0.1452
     30 C         140.0773  140.9652  168.0898 C.ar    1  UNL1        0.0375
     31 C         141.3617  141.4299  167.4699 C.ar    1  UNL1        0.0031
     32 C         141.8732  140.7729  166.2222 C.ar    1  UNL1        0.0002
     33 C         141.1002  139.6512  165.5944 C.ar    1  UNL1        0.0029
     34 C         139.8158  139.1864  166.2143 C.ar    1  UNL1        0.0349
@<TRIPOS>BOND
     1    23    24    3
     2    24    17    1
     3    17    18   ar
     4    18    19   ar
     5    19    20   ar
     6    20    14    1
     7    14    15    2
     8    14    16    2
     9    14    12    1
    10    12    11    1
    11    11    10    1
    12    10     1    1
    13     1     2    1
    14     2     3    1
    15     3     4    1
    16     4     5    1
    17     5    25    1
    18    25    26    1
    19    26    27   ar
    20    27    28   ar
    21    28    29   ar
    22    29    30   ar
    23    30    31   ar
    24    31    32   ar
    25    32    33   ar
    26    33    34   ar
    27     5     6    1
    28     6     7    1
    29     7     8    1
    30     7     9    1
    31    20    21   ar
    32    21    22   ar
    33    22    17   ar
    34     8     1    1
    35     9     3    1
    36    34    26   ar
    37    34    29   ar
    38    12    13    1
@<TRIPOS>MOLECULE
*****
 34 38 0 0 0
SMALL
GASTEIGER

@<TRIPOS>ATOM
      1 N         139.8768  139.6281  159.9481 N.3     1  UNL1       -0.2673
      2 C         141.2725  139.1844  160.2722 C.3     1  UNL1        0.1035
      3 C         142.0177  138.2972  159.3196 C.3     1  UNL1        0.1470
      4 C         142.7629  137.4100  158.3670 C.3     1  UNL1        0.1037
      5 N         142.1124  136.9664  157.0902 N.3     1  UNL1       -0.2646
      6 C         140.7166  137.4101  156.7661 C.3     1  UNL1        0.1037
      7 C         139.9714  138.2974  157.7188 C.3     1  UNL1        0.1470
      8 C         139.2263  139.1846  158.6714 C.3     1  UNL1        0.1035
      9 O         141.3671  137.8537  158.0429 O.3     1  UNL1       -0.3530
     10 C         139.1316  140.5154  160.9008 C.3     1  UNL1        0.0913
     11 C         139.6055  140.6614  162.3164 C.3     1  UNL1        0.1087
     12 N         138.6166  140.6422  163.4442 N.3     1  UNL1       -0.1780
     13 H         137.9254  141.3645  163.2420 H       1  UNL1        0.1488
     14 S         139.0806  140.8689  164.8525 S.O2    1  UNL1        0.0603
     15 O         138.1281  139.8158  165.3358 O.2     1  UNL1       -0.1530
     16 O         140.0331  141.9220  164.3691 O.2     1  UNL1       -0.1530
     17 C         140.4725  141.5489  169.0774 C.ar    1  UNL1        0.0685
     18 C         140.6207  142.6362  168.0548 C.ar    1  UNL1        0.0116
     19 C         140.1567  142.4095  166.6464 C.ar    1  UNL1        0.0206
     20 C         139.5446  141.0956  166.2607 C.ar    1  UNL1        0.1220
     21 C         139.3964  140.0082  167.2834 C.ar    1  UNL1        0.0206
     22 C         139.8604  140.2349  168.6917 C.ar    1  UNL1        0.0116
     23 N         141.4005  142.0023  171.8940 N.1     1  UNL1       -0.1908
     24 C         140.9365  141.7756  170.4857 C.1     1  UNL1        0.1004
     25 C         142.8575  136.0792  156.1376 C.3     1  UNL1        0.1025
     26 C         142.4852  134.6314  156.0138 C.ar    1  UNL1        0.0344
     27 C         141.3123  134.0845  155.2554 C.ar    1  UNL1        0.1766
     28 O         141.3226  132.5914  155.3995 O.2     1  UNL1       -0.4507
     29 C         142.5019  132.2156  156.2470 C.ar    1  UNL1        0.1452
     30 C         143.0143  130.8883  156.7220 C.ar    1  UNL1        0.0375
     31 C         144.2451  130.8218  157.5767 C.ar    1  UNL1        0.0031
     32 C         144.9637  132.0826  157.9563 C.ar    1  UNL1        0.0002
     33 C         144.4513  133.4099  157.4813 C.ar    1  UNL1        0.0029
     34 C         143.2204  133.4764  156.6266 C.ar    1  UNL1        0.0349
@<TRIPOS>BOND
     1    23    24    3
     2    24    17    1
     3    17    18   ar
     4    18    19   ar
     5    19    20   ar
     6    20    14    1
     7    14    15    2
     8    14    16    2
     9    14    12    1
    10    12    11    1
    11    11    10    1
    12    10     1    1
    13     1     2    1
    14     2     3    1
    15     3     4    1
    16     4     5    1
    17     5    25    1
    18    25    26    1
    19    26    27   ar
    20    27    28   ar
    21    28    29   ar
    22    29    30   ar
    23    30    31   ar
    24    31    32   ar
    25    32    33   ar
    26    33    34   ar
    27     5     6    1
    28     6     7    1
    29     7     8    1
    30     7     9    1
    31    20    21   ar
    32    21    22   ar
    33    22    17   ar
    34     8     1    1
    35     9     3    1
    36    34    26   ar
    37    34    29   ar
    38    12    13    1
