@<TRIPOS>MOLECULE
*****
 28 31 0 0 0
SMALL
GASTEIGER

@<TRIPOS>ATOM
      1 C         137.6396  140.0098  160.9607 C.3     1  UNL1        0.1366
      2 N         138.1231  140.9119  162.0572 N.ar    1  UNL1       -0.2630
      3 C         138.2620  142.4032  161.9751 C.ar    1  UNL1        0.3331
      4 O         137.9418  143.2542  160.7821 O.2     1  UNL1       -0.2462
      5 N         138.7774  142.8941  163.2955 N.ar    1  UNL1       -0.2694
      6 C         138.9570  141.7062  164.1936 C.ar    1  UNL1        0.0986
      7 C         139.4365  141.5818  165.6094 C.ar    1  UNL1        0.0224
      8 C         139.5116  140.2323  166.2599 C.ar    1  UNL1        0.0267
      9 C         139.1073  139.0073  165.4946 C.ar    1  UNL1        0.1011
     10 N         138.6278  139.1317  164.0788 N.ar    1  UNL1       -0.2251
     11 C         138.5526  140.4811  163.4283 C.ar    1  UNL1        0.1633
     12 C         139.9912  140.1079  167.6758 C.ar    1  UNL1        0.0309
     13 C         139.1370  140.1876  168.9062 C.ar    1  UNL1        0.0070
     14 C         140.0270  140.0108  170.1006 C.ar    1  UNL1        0.0109
     15 C         141.4313  139.8218  169.6084 C.ar    1  UNL1        0.1009
     16 S         141.4091  139.8818  168.1098 S.2     1  UNL1       -0.0831
     17 C         142.6447  139.6101  170.4645 C.3     1  UNL1        0.4241
     18 F         143.8580  139.3983  171.3205 F       1  UNL1       -0.1654
     19 F         142.7219  141.0861  170.7201 F       1  UNL1       -0.1654
     20 F         142.5674  138.1340  170.2088 F       1  UNL1       -0.1654
     21 C         139.0630  144.3222  163.6547 C.3     1  UNL1        0.1956
     22 C         140.3031  144.9914  163.1401 C.2     1  UNL1        0.2490
     23 O         140.1969  146.0808  162.1145 O.2     1  UNL1       -0.2728
     24 N         141.6492  144.5711  163.6513 N.am    1  UNL1       -0.2722
     25 C         143.0639  144.9920  163.3839 C.3     1  UNL1        0.1305
     26 C         143.5530  143.9768  164.3742 C.3     1  UNL1        0.2003
     27 F         144.8990  143.5567  164.8853 F       1  UNL1       -0.2336
     28 C         142.1382  143.5561  164.6415 C.3     1  UNL1        0.1305
@<TRIPOS>BOND
     1     1     2    1
     2     2     3   ar
     3     3     4    2
     4     3     5   ar
     5     5    21    1
     6    21    22    1
     7    22    23    2
     8    22    24   am
     9    24    25    1
    10    25    26    1
    11    26    27    1
    12    26    28    1
    13     5     6   ar
    14     6     7   ar
    15     7     8   ar
    16     8    12    1
    17    12    13   ar
    18    13    14   ar
    19    14    15   ar
    20    15    17    1
    21    17    18    1
    22    17    19    1
    23    17    20    1
    24    15    16   ar
    25     8     9   ar
    26     9    10   ar
    27    10    11   ar
    28    11     2   ar
    29    28    24    1
    30    11     6   ar
    31    16    12   ar
@<TRIPOS>MOLECULE
*****
 28 31 0 0 0
SMALL
GASTEIGER

@<TRIPOS>ATOM
      1 C         142.7735  137.6858  160.8144 C.3     1  UNL1        0.1366
      2 N         141.8760  138.2586  161.8710 N.ar    1  UNL1       -0.2630
      3 C         140.4027  138.5066  161.7369 C.ar    1  UNL1        0.3331
      4 O         139.5682  138.2253  160.5226 O.2     1  UNL1       -0.2462
      5 N         139.9105  139.0852  163.0303 N.ar    1  UNL1       -0.2694
      6 C         141.0795  139.1948  163.9638 C.ar    1  UNL1        0.0986
      7 C         141.1948  139.6939  165.3736 C.ar    1  UNL1        0.0224
      8 C         142.5248  139.6820  166.0670 C.ar    1  UNL1        0.0267
      9 C         143.7396  139.1711  165.3505 C.ar    1  UNL1        0.1011
     10 N         143.6243  138.6721  163.9407 N.ar    1  UNL1       -0.2251
     11 C         142.2943  138.6840  163.2473 C.ar    1  UNL1        0.1633
     12 C         142.6401  140.1810  167.4769 C.ar    1  UNL1        0.0309
     13 C         142.4806  139.3566  168.7198 C.ar    1  UNL1        0.0070
     14 C         142.6771  140.2582  169.9024 C.ar    1  UNL1        0.0109
     15 C         142.9581  141.6399  169.3904 C.ar    1  UNL1        0.1009
     16 S         142.9352  141.5922  167.8913 S.2     1  UNL1       -0.0831
     17 C         143.2165  142.8557  170.2300 C.3     1  UNL1        0.4241
     18 F         143.4750  144.0715  171.0696 F       1  UNL1       -0.1654
     19 F         144.6941  142.6375  170.0911 F       1  UNL1       -0.1654
     20 F         141.7390  143.0739  170.3688 F       1  UNL1       -0.1654
     21 C         138.4973  139.4842  163.3365 C.3     1  UNL1        0.1956
     22 C         137.9382  140.7567  162.7723 C.2     1  UNL1        0.2490
     23 O         137.2445  140.7464  161.4423 O.2     1  UNL1       -0.2728
     24 N         138.0727  142.0394  163.5381 N.am    1  UNL1       -0.2722
     25 C         137.6564  143.4617  163.3062 C.3     1  UNL1        0.1305
     26 C         138.2630  143.8535  164.6210 C.3     1  UNL1        0.2003
     27 F         138.3976  145.1363  165.3867 F       1  UNL1       -0.2336
     28 C         138.6793  142.4312  164.8528 C.3     1  UNL1        0.1305
@<TRIPOS>BOND
     1     1     2    1
     2     2     3   ar
     3     3     4    2
     4     3     5   ar
     5     5    21    1
     6    21    22    1
     7    22    23    2
     8    22    24   am
     9    24    25    1
    10    25    26    1
    11    26    27    1
    12    26    28    1
    13     5     6   ar
    14     6     7   ar
    15     7     8   ar
    16     8    12    1
    17    12    13   ar
    18    13    14   ar
    19    14    15   ar
    20    15    17    1
    21    17    18    1
    22    17    19    1
    23    17    20    1
    24    15    16   ar
    25     8     9   ar
    26     9    10   ar
    27    10    11   ar
    28    11     2   ar
    29    28    24    1
    30    11     6   ar
    31    16    12   ar
@<TRIPOS>MOLECULE
*****
 28 31 0 0 0
SMALL
GASTEIGER

@<TRIPOS>ATOM
      1 C         137.7208  138.0154  161.7506 C.3     1  UNL1        0.1366
      2 N         138.0075  139.3209  162.4314 N.ar    1  UNL1       -0.2630
      3 C         137.8400  140.6846  161.8296 C.ar    1  UNL1        0.3331
      4 O         137.3564  140.9823  160.4412 O.2     1  UNL1       -0.2462
      5 N         138.2411  141.6984  162.8598 N.ar    1  UNL1       -0.2694
      6 C         138.6564  140.9612  164.0984 C.ar    1  UNL1        0.0986
      7 C         139.1474  141.4381  165.4331 C.ar    1  UNL1        0.0224
      8 C         139.4941  140.4456  166.5030 C.ar    1  UNL1        0.0267
      9 C         139.3497  138.9763  166.2382 C.ar    1  UNL1        0.1011
     10 N         138.8587  138.4994  164.9036 N.ar    1  UNL1       -0.2251
     11 C         138.5121  139.4918  163.8336 C.ar    1  UNL1        0.1633
     12 C         139.9851  140.9225  167.8378 C.ar    1  UNL1        0.0309
     13 C         139.4410  140.5143  169.1747 C.ar    1  UNL1        0.0070
     14 C         140.2261  141.2308  170.2331 C.ar    1  UNL1        0.0109
     15 C         141.2555  142.0819  169.5503 C.ar    1  UNL1        0.1009
     16 S         141.1065  141.8913  168.0700 S.2     1  UNL1       -0.0831
     17 C         142.2577  142.9679  170.2288 C.3     1  UNL1        0.4241
     18 F         143.2600  143.8540  170.9073 F       1  UNL1       -0.1654
     19 F         143.1979  141.8062  170.3570 F       1  UNL1       -0.1654
     20 F         141.3175  144.1296  170.1006 F       1  UNL1       -0.1654
     21 C         138.2289  143.1878  162.6827 C.3     1  UNL1        0.1956
     22 C         139.3309  143.8614  161.9196 C.2     1  UNL1        0.2490
     23 O         139.2056  144.0580  160.4378 O.2     1  UNL1       -0.2728
     24 N         140.5581  144.3383  162.6384 N.am    1  UNL1       -0.2722
     25 C         141.8245  145.0307  162.2301 C.3     1  UNL1        0.1305
     26 C         142.2936  145.0127  163.6549 C.3     1  UNL1        0.2003
     27 F         143.5207  145.4896  164.3736 F       1  UNL1       -0.2336
     28 C         141.0271  144.3202  164.0631 C.3     1  UNL1        0.1305
@<TRIPOS>BOND
     1     1     2    1
     2     2     3   ar
     3     3     4    2
     4     3     5   ar
     5     5    21    1
     6    21    22    1
     7    22    23    2
     8    22    24   am
     9    24    25    1
    10    25    26    1
    11    26    27    1
    12    26    28    1
    13     5     6   ar
    14     6     7   ar
    15     7     8   ar
    16     8    12    1
    17    12    13   ar
    18    13    14   ar
    19    14    15   ar
    20    15    17    1
    21    17    18    1
    22    17    19    1
    23    17    20    1
    24    15    16   ar
    25     8     9   ar
    26     9    10   ar
    27    10    11   ar
    28    11     2   ar
    29    28    24    1
    30    11     6   ar
    31    16    12   ar
@<TRIPOS>MOLECULE
*****
 28 31 0 0 0
SMALL
GASTEIGER

@<TRIPOS>ATOM
      1 C         144.1087  138.5497  161.6618 C.3     1  UNL1        0.1366
      2 N         143.8447  139.8995  162.2604 N.ar    1  UNL1       -0.2630
      3 C         143.8782  141.2095  161.5305 C.ar    1  UNL1        0.3331
      4 O         144.1817  141.3998  160.0739 O.2     1  UNL1       -0.2462
      5 N         143.5550  142.2958  162.5131 N.ar    1  UNL1       -0.2694
      6 C         143.3217  141.6572  163.8501 C.ar    1  UNL1        0.0986
      7 C         142.9694  142.2330  165.1897 C.ar    1  UNL1        0.0224
      8 C         142.7961  141.3277  166.3730 C.ar    1  UNL1        0.0267
      9 C         142.9752  139.8466  166.2168 C.ar    1  UNL1        0.1011
     10 N         143.3275  139.2708  164.8773 N.ar    1  UNL1       -0.2251
     11 C         143.5008  140.1762  163.6940 C.ar    1  UNL1        0.1633
     12 C         142.4438  141.9034  167.7126 C.ar    1  UNL1        0.0309
     13 C         143.4135  142.2779  168.7940 C.ar    1  UNL1        0.0070
     14 C         142.6289  142.8116  169.9557 C.ar    1  UNL1        0.0109
     15 C         141.1742  142.7670  169.5922 C.ar    1  UNL1        0.1009
     16 S         141.0599  142.2057  168.2059 S.2     1  UNL1       -0.0831
     17 C         140.0342  143.2066  170.4623 C.3     1  UNL1        0.4241
     18 F         138.8941  143.6461  171.3324 F       1  UNL1       -0.1654
     19 F         140.3751  144.6406  170.1846 F       1  UNL1       -0.1654
     20 F         139.6932  141.7725  170.7400 F       1  UNL1       -0.1654
     21 C         143.4785  143.7632  162.2115 C.3     1  UNL1        0.1956
     22 C         142.1916  144.3635  161.7280 C.2     1  UNL1        0.2490
     23 O         142.0367  144.7436  160.2853 O.2     1  UNL1       -0.2728
     24 N         141.0596  144.5835  162.6873 N.am    1  UNL1       -0.2722
     25 C         139.6706  145.1394  162.5791 C.3     1  UNL1        0.1305
     26 C         139.4587  144.8947  164.0439 C.3     1  UNL1        0.2003
     27 F         138.3268  145.1148  165.0031 F       1  UNL1       -0.2336
     28 C         140.8477  144.3389  164.1519 C.3     1  UNL1        0.1305
@<TRIPOS>BOND
     1     1     2    1
     2     2     3   ar
     3     3     4    2
     4     3     5   ar
     5     5    21    1
     6    21    22    1
     7    22    23    2
     8    22    24   am
     9    24    25    1
    10    25    26    1
    11    26    27    1
    12    26    28    1
    13     5     6   ar
    14     6     7   ar
    15     7     8   ar
    16     8    12    1
    17    12    13   ar
    18    13    14   ar
    19    14    15   ar
    20    15    17    1
    21    17    18    1
    22    17    19    1
    23    17    20    1
    24    15    16   ar
    25     8     9   ar
    26     9    10   ar
    27    10    11   ar
    28    11     2   ar
    29    28    24    1
    30    11     6   ar
    31    16    12   ar
@<TRIPOS>MOLECULE
*****
 28 31 0 0 0
SMALL
GASTEIGER

@<TRIPOS>ATOM
      1 C         139.4071  146.3453  161.4793 C.3     1  UNL1        0.1366
      2 N         140.3606  145.3085  161.9950 N.ar    1  UNL1       -0.2630
      3 C         141.5285  144.7356  161.2482 C.ar    1  UNL1        0.3331
      4 O         141.9480  145.0988  159.8547 O.2     1  UNL1       -0.2462
      5 N         142.2032  143.7356  162.1397 N.ar    1  UNL1       -0.2694
      6 C         141.4523  143.6905  163.4375 C.ar    1  UNL1        0.0986
      7 C         141.6583  142.8898  164.6890 C.ar    1  UNL1        0.0224
      8 C         140.7256  143.0613  165.8511 C.ar    1  UNL1        0.0267
      9 C         139.5868  144.0334  165.7617 C.ar    1  UNL1        0.1011
     10 N         139.3807  144.8341  164.5101 N.ar    1  UNL1       -0.2251
     11 C         140.3134  144.6626  163.3480 C.ar    1  UNL1        0.1633
     12 C         140.9316  142.2606  167.1027 C.ar    1  UNL1        0.0309
     13 C         140.4140  142.6082  168.4670 C.ar    1  UNL1        0.0070
     14 C         140.8539  141.5342  169.4172 C.ar    1  UNL1        0.0109
     15 C         141.6436  140.5228  168.6402 C.ar    1  UNL1        0.1009
     16 S         141.6916  140.9718  167.2098 S.2     1  UNL1       -0.0831
     17 C         142.2744  139.2806  169.1960 C.3     1  UNL1        0.4241
     18 F         142.9052  138.0383  169.7519 F       1  UNL1       -0.1654
     19 F         141.4443  139.4148  170.4381 F       1  UNL1       -0.1654
     20 F         143.1045  139.1463  167.9539 F       1  UNL1       -0.1654
     21 C         143.4159  142.9233  161.7942 C.3     1  UNL1        0.1956
     22 C         143.3304  141.4260  161.7580 C.2     1  UNL1        0.2490
     23 O         142.5705  140.7445  160.6589 O.2     1  UNL1       -0.2728
     24 N         144.0049  140.6104  162.8210 N.am    1  UNL1       -0.2722
     25 C         144.1367  139.1443  163.1090 C.3     1  UNL1        0.1305
     26 C         144.9588  139.4570  164.3242 C.3     1  UNL1        0.2003
     27 F         145.6332  138.6414  165.3870 F       1  UNL1       -0.2336
     28 C         144.8270  140.9231  164.0360 C.3     1  UNL1        0.1305
@<TRIPOS>BOND
     1     1     2    1
     2     2     3   ar
     3     3     4    2
     4     3     5   ar
     5     5    21    1
     6    21    22    1
     7    22    23    2
     8    22    24   am
     9    24    25    1
    10    25    26    1
    11    26    27    1
    12    26    28    1
    13     5     6   ar
    14     6     7   ar
    15     7     8   ar
    16     8    12    1
    17    12    13   ar
    18    13    14   ar
    19    14    15   ar
    20    15    17    1
    21    17    18    1
    22    17    19    1
    23    17    20    1
    24    15    16   ar
    25     8     9   ar
    26     9    10   ar
    27    10    11   ar
    28    11     2   ar
    29    28    24    1
    30    11     6   ar
    31    16    12   ar
@<TRIPOS>MOLECULE
*****
 28 31 0 0 0
SMALL
GASTEIGER

@<TRIPOS>ATOM
      1 C         145.0910  142.4762  160.6581 C.3     1  UNL1        0.1366
      2 N         144.4250  141.4894  161.5705 N.ar    1  UNL1       -0.2630
      3 C         143.9855  140.1037  161.2006 C.ar    1  UNL1        0.3331
      4 O         144.1350  139.4616  159.8533 O.2     1  UNL1       -0.2462
      5 N         143.3704  139.4730  162.4146 N.ar    1  UNL1       -0.2694
      6 C         143.4297  140.4688  163.5348 C.ar    1  UNL1        0.0986
      7 C         142.9743  140.4018  164.9624 C.ar    1  UNL1        0.0224
      8 C         143.1708  141.5810  165.8684 C.ar    1  UNL1        0.0267
      9 C         143.8225  142.8272  165.3467 C.ar    1  UNL1        0.1011
     10 N         144.2779  142.8942  163.9191 N.ar    1  UNL1       -0.2251
     11 C         144.0814  141.7150  163.0131 C.ar    1  UNL1        0.1633
     12 C         142.7155  141.5140  167.2961 C.ar    1  UNL1        0.0309
     13 C         143.2395  142.3463  168.4286 C.ar    1  UNL1        0.0070
     14 C         142.5041  141.9497  169.6743 C.ar    1  UNL1        0.0109
     15 C         141.5254  140.8722  169.3117 C.ar    1  UNL1        0.1009
     16 S         141.6561  140.6030  167.8418 S.2     1  UNL1       -0.0831
     17 C         140.5819  140.1847  170.2535 C.3     1  UNL1        0.4241
     18 F         139.6383  139.4972  171.1953 F       1  UNL1       -0.1654
     19 F         141.4908  138.9921  170.2935 F       1  UNL1       -0.1654
     20 F         139.6730  141.3773  170.2135 F       1  UNL1       -0.1654
     21 C         142.7967  138.0893  162.4944 C.3     1  UNL1        0.1956
     22 C         141.3383  137.8653  162.2241 C.2     1  UNL1        0.2490
     23 O         140.8423  137.7770  160.8112 O.2     1  UNL1       -0.2728
     24 N         140.3760  137.7296  163.3667 N.am    1  UNL1       -0.2722
     25 C         138.8977  137.5061  163.4874 C.3     1  UNL1        0.1305
     26 C         139.0150  137.5377  164.9825 C.3     1  UNL1        0.2003
     27 F         138.0527  137.4020  166.1250 F       1  UNL1       -0.2336
     28 C         140.4934  137.7611  164.8617 C.3     1  UNL1        0.1305
@<TRIPOS>BOND
     1     1     2    1
     2     2     3   ar
     3     3     4    2
     4     3     5   ar
     5     5    21    1
     6    21    22    1
     7    22    23    2
     8    22    24   am
     9    24    25    1
    10    25    26    1
    11    26    27    1
    12    26    28    1
    13     5     6   ar
    14     6     7   ar
    15     7     8   ar
    16     8    12    1
    17    12    13   ar
    18    13    14   ar
    19    14    15   ar
    20    15    17    1
    21    17    18    1
    22    17    19    1
    23    17    20    1
    24    15    16   ar
    25     8     9   ar
    26     9    10   ar
    27    10    11   ar
    28    11     2   ar
    29    28    24    1
    30    11     6   ar
    31    16    12   ar
@<TRIPOS>MOLECULE
*****
 28 31 0 0 0
SMALL
GASTEIGER

@<TRIPOS>ATOM
      1 C         138.3116  138.1467  162.0676 C.3     1  UNL1        0.1366
      2 N         139.6851  138.4510  162.5880 N.ar    1  UNL1       -0.2630
      3 C         140.9644  138.3511  161.8113 C.ar    1  UNL1        0.3331
      4 O         141.0948  137.9294  160.3777 O.2     1  UNL1       -0.2462
      5 N         142.0904  138.7469  162.7198 N.ar    1  UNL1       -0.2694
      6 C         141.5070  139.0914  164.0581 C.ar    1  UNL1        0.0986
      7 C         142.1373  139.5481  165.3403 C.ar    1  UNL1        0.0224
      8 C         141.2811  139.8218  166.5411 C.ar    1  UNL1        0.0267
      9 C         139.7945  139.6389  166.4596 C.ar    1  UNL1        0.1011
     10 N         139.1642  139.1823  165.1774 N.ar    1  UNL1       -0.2251
     11 C         140.0204  138.9085  163.9766 C.ar    1  UNL1        0.1633
     12 C         141.9114  140.2784  167.8234 C.ar    1  UNL1        0.0309
     13 C         142.3497  139.3953  168.9538 C.ar    1  UNL1        0.0070
     14 C         142.9233  140.2695  170.0294 C.ar    1  UNL1        0.0109
     15 C         142.8395  141.6929  169.5637 C.ar    1  UNL1        0.1009
     16 S         142.2141  141.6984  168.2003 S.2     1  UNL1       -0.0831
     17 C         143.3002  142.8990  170.3273 C.3     1  UNL1        0.4241
     18 F         143.7608  144.1051  171.0909 F       1  UNL1       -0.1654
     19 F         141.8811  143.3731  170.4346 F       1  UNL1       -0.1654
     20 F         144.7192  142.4249  170.2200 F       1  UNL1       -0.1654
     21 C         143.5445  138.7906  162.3543 C.3     1  UNL1        0.1956
     22 C         144.0281  139.7592  161.3159 C.2     1  UNL1        0.2490
     23 O         144.3296  139.2808  159.9266 O.2     1  UNL1       -0.2728
     24 N         144.2103  141.2061  161.6670 N.am    1  UNL1       -0.2722
     25 C         144.6595  142.4293  160.9241 C.3     1  UNL1        0.1305
     26 C         144.4679  143.2524  162.1635 C.3     1  UNL1        0.2003
     27 F         144.6500  144.6992  162.5145 F       1  UNL1       -0.2336
     28 C         144.0186  142.0291  162.9063 C.3     1  UNL1        0.1305
@<TRIPOS>BOND
     1     1     2    1
     2     2     3   ar
     3     3     4    2
     4     3     5   ar
     5     5    21    1
     6    21    22    1
     7    22    23    2
     8    22    24   am
     9    24    25    1
    10    25    26    1
    11    26    27    1
    12    26    28    1
    13     5     6   ar
    14     6     7   ar
    15     7     8   ar
    16     8    12    1
    17    12    13   ar
    18    13    14   ar
    19    14    15   ar
    20    15    17    1
    21    17    18    1
    22    17    19    1
    23    17    20    1
    24    15    16   ar
    25     8     9   ar
    26     9    10   ar
    27    10    11   ar
    28    11     2   ar
    29    28    24    1
    30    11     6   ar
    31    16    12   ar
@<TRIPOS>MOLECULE
*****
 28 31 0 0 0
SMALL
GASTEIGER

@<TRIPOS>ATOM
      1 C         138.8358  138.2019  161.7526 C.3     1  UNL1        0.1366
      2 N         138.8715  139.3634  162.7012 N.ar    1  UNL1       -0.2630
      3 C         138.0757  140.6287  162.5760 C.ar    1  UNL1        0.3331
      4 O         137.1045  140.9548  161.4804 O.2     1  UNL1       -0.2462
      5 N         138.4216  141.5107  163.7390 N.ar    1  UNL1       -0.2694
      6 C         139.4312  140.7904  164.5828 C.ar    1  UNL1        0.0986
      7 C         140.1332  141.1716  165.8524 C.ar    1  UNL1        0.0224
      8 C         141.1133  140.2256  166.4805 C.ar    1  UNL1        0.0267
      9 C         141.3913  138.8985  165.8391 C.ar    1  UNL1        0.1011
     10 N         140.6892  138.5173  164.5695 N.ar    1  UNL1       -0.2251
     11 C         139.7092  139.4633  163.9414 C.ar    1  UNL1        0.1633
     12 C         141.8153  140.6068  167.7502 C.ar    1  UNL1        0.0309
     13 C         142.3353  139.6580  168.7891 C.ar    1  UNL1        0.0070
     14 C         142.9620  140.4685  169.8847 C.ar    1  UNL1        0.0109
     15 C         142.8294  141.9182  169.5229 C.ar    1  UNL1        0.1009
     16 S         142.1207  142.0036  168.2037 S.2     1  UNL1       -0.0831
     17 C         143.3194  143.0786  170.3373 C.3     1  UNL1        0.4241
     18 F         143.8094  144.2390  171.1517 F       1  UNL1       -0.1654
     19 F         141.9198  143.6120  170.4194 F       1  UNL1       -0.1654
     20 F         144.7189  142.5452  170.2553 F       1  UNL1       -0.1654
     21 C         137.8571  142.8736  164.0105 C.3     1  UNL1        0.1956
     22 C         138.7644  144.0677  164.0462 C.2     1  UNL1        0.2490
     23 O         138.9113  144.8604  165.3111 O.2     1  UNL1       -0.2728
     24 N         139.5246  144.4691  162.8170 N.am    1  UNL1       -0.2722
     25 C         140.4926  145.5639  162.4789 C.3     1  UNL1        0.1305
     26 C         140.5998  145.0366  161.0787 C.3     1  UNL1        0.2003
     27 F         141.3600  145.4380  159.8495 F       1  UNL1       -0.2336
     28 C         139.6319  143.9418  161.4168 C.3     1  UNL1        0.1305
@<TRIPOS>BOND
     1     1     2    1
     2     2     3   ar
     3     3     4    2
     4     3     5   ar
     5     5    21    1
     6    21    22    1
     7    22    23    2
     8    22    24   am
     9    24    25    1
    10    25    26    1
    11    26    27    1
    12    26    28    1
    13     5     6   ar
    14     6     7   ar
    15     7     8   ar
    16     8    12    1
    17    12    13   ar
    18    13    14   ar
    19    14    15   ar
    20    15    17    1
    21    17    18    1
    22    17    19    1
    23    17    20    1
    24    15    16   ar
    25     8     9   ar
    26     9    10   ar
    27    10    11   ar
    28    11     2   ar
    29    28    24    1
    30    11     6   ar
    31    16    12   ar
@<TRIPOS>MOLECULE
*****
 28 31 0 0 0
SMALL
GASTEIGER

@<TRIPOS>ATOM
      1 C         142.1729  137.9408  160.0519 C.3     1  UNL1        0.1366
      2 N         141.2571  138.6939  160.9707 N.ar    1  UNL1       -0.2630
      3 C         139.9524  139.3283  160.5897 C.ar    1  UNL1        0.3331
      4 O         139.3343  139.3211  159.2230 O.2     1  UNL1       -0.2462
      5 N         139.3743  139.9713  161.8154 N.ar    1  UNL1       -0.2694
      6 C         140.3217  139.7342  162.9539 C.ar    1  UNL1        0.0986
      7 C         140.2751  140.1353  164.3985 C.ar    1  UNL1        0.0224
      8 C         141.3922  139.7468  165.3211 C.ar    1  UNL1        0.0267
      9 C         142.5558  138.9573  164.7991 C.ar    1  UNL1        0.1011
     10 N         142.6024  138.5563  163.3545 N.ar    1  UNL1       -0.2251
     11 C         141.4854  138.9447  162.4319 C.ar    1  UNL1        0.1633
     12 C         141.3456  140.1478  166.7658 C.ar    1  UNL1        0.0309
     13 C         142.2404  139.6317  167.8534 C.ar    1  UNL1        0.0070
     14 C         141.8439  140.3003  169.1363 C.ar    1  UNL1        0.0109
     15 C         140.7039  141.2297  168.8415 C.ar    1  UNL1        0.1009
     16 S         140.3960  141.1354  167.3765 S.2     1  UNL1       -0.0831
     17 C         139.9962  142.1004  169.8370 C.3     1  UNL1        0.4241
     18 F         139.2885  142.9711  170.8325 F       1  UNL1       -0.1654
     19 F         138.9089  141.0745  169.9613 F       1  UNL1       -0.1654
     20 F         141.0835  143.1262  169.7127 F       1  UNL1       -0.1654
     21 C         138.0766  140.7199  161.8896 C.3     1  UNL1        0.1956
     22 C         138.0618  142.2122  161.7372 C.2     1  UNL1        0.2490
     23 O         138.0701  142.8265  160.3688 O.2     1  UNL1       -0.2728
     24 N         138.0386  143.0900  162.9533 N.am    1  UNL1       -0.2722
     25 C         138.0197  144.5707  163.1922 C.3     1  UNL1        0.1305
     26 C         138.0060  144.3315  164.6731 C.3     1  UNL1        0.2003
     27 F         137.9829  145.2094  165.8890 F       1  UNL1       -0.2336
     28 C         138.0250  142.8508  164.4340 C.3     1  UNL1        0.1305
@<TRIPOS>BOND
     1     1     2    1
     2     2     3   ar
     3     3     4    2
     4     3     5   ar
     5     5    21    1
     6    21    22    1
     7    22    23    2
     8    22    24   am
     9    24    25    1
    10    25    26    1
    11    26    27    1
    12    26    28    1
    13     5     6   ar
    14     6     7   ar
    15     7     8   ar
    16     8    12    1
    17    12    13   ar
    18    13    14   ar
    19    14    15   ar
    20    15    17    1
    21    17    18    1
    22    17    19    1
    23    17    20    1
    24    15    16   ar
    25     8     9   ar
    26     9    10   ar
    27    10    11   ar
    28    11     2   ar
    29    28    24    1
    30    11     6   ar
    31    16    12   ar
