@<TRIPOS>MOLECULE
*****
 31 36 0 0 0
SMALL
GASTEIGER

@<TRIPOS>ATOM
      1 C         138.9622  143.2306  162.0451 C.ar    1  UNL1        0.1124
      2 N         139.1325  143.6290  160.6090 N.ar    1  UNL1       -0.2243
      3 C         140.3594  144.3770  160.1788 C.ar    1  UNL1        0.1322
      4 C         141.4159  144.7267  161.1846 C.ar    1  UNL1        0.0345
      5 C         141.2455  144.3283  162.6206 C.ar    1  UNL1        0.0094
      6 C         140.0187  143.5802  163.0508 C.ar    1  UNL1        0.0769
      7 N         140.5299  144.7755  158.7427 N.pl3   1  UNL1       -0.2932
      8 C         141.4770  145.8161  158.2229 C.3     1  UNL1        0.0925
      9 C         141.3156  145.8870  156.7333 C.3     1  UNL1        0.0270
     10 C         140.2688  144.8903  156.3325 C.3     1  UNL1        0.0270
     11 C         139.7832  144.2033  157.5744 C.3     1  UNL1        0.0925
     12 C         140.9398  145.7337  155.2892 C.3     1  UNL1        0.0399
     13 C         141.1103  146.1322  153.8533 C.2     1  UNL1        0.0501
     14 O         140.8158  147.5394  153.4253 O.co2   1  UNL1       -0.5492
     15 O         141.5754  145.1235  152.8451 O.co2   1  UNL1       -0.5492
     16 C         139.8482  143.1818  164.4869 C.2     1  UNL1        0.2477
     17 O         139.1367  144.0962  165.4396 O.2     1  UNL1       -0.2701
     18 N         140.3893  141.8690  164.9703 N.am    1  UNL1       -0.3039
     19 H         140.8563  141.2688  164.3450 H       1  UNL1        0.1496
     20 C         140.2189  141.4705  166.4064 C.3     1  UNL1        0.0570
     21 C         139.3357  140.3119  166.7635 C.3     1  UNL1        0.0180
     22 C         139.1653  139.9135  168.1995 C.3     1  UNL1        0.0016
     23 C         139.8781  140.6738  169.2784 C.3     1  UNL1        0.0001
     24 C         140.7612  141.8324  168.9213 C.3     1  UNL1        0.0016
     25 C         139.5444  140.6595  166.1013 C.3     1  UNL1        0.0001
     26 C         138.6230  139.5517  165.6846 C.3     1  UNL1        0.0016
     27 C         138.4526  139.1533  167.1206 C.3     1  UNL1        0.0001
     28 C         139.5061  140.7103  165.3275 C.3     1  UNL1        0.0180
     29 C         140.9316  142.2308  167.4853 C.3     1  UNL1        0.0180
     30 C         137.6395  141.0034  162.2454 C.3     1  UNL1        0.0757
     31 S         137.7352  142.4826  162.4754 S.3     1  UNL1       -0.0938
@<TRIPOS>UNITY_ATOM_ATTR
14 1
charge -1
@<TRIPOS>BOND
     1    30    31    1
     2    31     1    1
     3     1     2   ar
     4     2     3   ar
     5     3     7    1
     6     7     8    1
     7     9     8    1
     8     9    10    1
     9    10    11    1
    10    10    12    1
    11    12    13    1
    12    13    14   ar
    13    13    15   ar
    14     3     4   ar
    15     4     5   ar
    16     5     6   ar
    17     6    16    1
    18    16    17    2
    19    16    18   am
    20    18    20    1
    21    20    21    1
    22    21    22    1
    23    22    23    1
    24    23    24    1
    25    24    25    1
    26    25    26    1
    27    26    27    1
    28    26    28    1
    29    24    29    1
    30     6     1   ar
    31    28    20    1
    32    11     7    1
    33    29    20    1
    34    12     9    1
    35    27    22    1
    36    18    19    1
@<TRIPOS>MOLECULE
*****
 31 36 0 0 0
SMALL
GASTEIGER

@<TRIPOS>ATOM
      1 C         141.9500  139.5612  162.4323 C.ar    1  UNL1        0.1124
      2 N         141.4978  140.0808  163.7648 N.ar    1  UNL1       -0.2243
      3 C         142.1799  141.2679  164.3776 C.ar    1  UNL1        0.1322
      4 C         143.3141  141.9353  163.6579 C.ar    1  UNL1        0.0345
      5 C         143.7664  141.4157  162.3255 C.ar    1  UNL1        0.0094
      6 C         143.0843  140.2287  161.7127 C.ar    1  UNL1        0.0769
      7 N         141.7276  141.7875  165.7101 N.pl3   1  UNL1       -0.2932
      8 C         142.5086  141.7313  166.9896 C.3     1  UNL1        0.0925
      9 C         141.6788  142.3636  168.0673 C.3     1  UNL1        0.0270
     10 C         140.3849  142.8107  167.4539 C.3     1  UNL1        0.0270
     11 C         140.4152  142.4547  165.9971 C.3     1  UNL1        0.0925
     12 C         140.6403  143.0372  168.9146 C.3     1  UNL1        0.0399
     13 C         140.1881  143.5568  170.2470 C.2     1  UNL1        0.0501
     14 O         139.9127  145.0202  170.4272 O.co2   1  UNL1       -0.5492
     15 O         140.0115  142.6130  171.3995 O.co2   1  UNL1       -0.5492
     16 C         143.5365  139.7090  160.3802 C.2     1  UNL1        0.2477
     17 O         144.4293  138.5058  160.3081 O.2     1  UNL1       -0.2701
     18 N         143.0959  140.3925  159.1198 N.am    1  UNL1       -0.3039
     19 H         142.5099  141.1822  159.1671 H       1  UNL1        0.1496
     20 C         143.5481  139.8729  157.7873 C.3     1  UNL1        0.0570
     21 C         144.6110  140.6014  157.0195 C.3     1  UNL1        0.0180
     22 C         145.0631  140.0818  155.6871 C.3     1  UNL1        0.0016
     23 C         144.4524  138.8335  155.1224 C.3     1  UNL1        0.0001
     24 C         143.3895  138.1049  155.8901 C.3     1  UNL1        0.0016
     25 C         144.2554  140.7084  157.7015 C.3     1  UNL1        0.0001
     26 C         145.2217  141.8497  157.5843 C.3     1  UNL1        0.0016
     27 C         145.6738  141.3300  156.2518 C.3     1  UNL1        0.0001
     28 C         144.1588  141.1211  158.3520 C.3     1  UNL1        0.0180
     29 C         142.9374  138.6246  157.2225 C.3     1  UNL1        0.0180
     30 C         139.8692  138.0188  162.2286 C.3     1  UNL1        0.0757
     31 S         141.2680  138.3740  161.8194 S.3     1  UNL1       -0.0938
@<TRIPOS>UNITY_ATOM_ATTR
14 1
charge -1
@<TRIPOS>BOND
     1    30    31    1
     2    31     1    1
     3     1     2   ar
     4     2     3   ar
     5     3     7    1
     6     7     8    1
     7     9     8    1
     8     9    10    1
     9    10    11    1
    10    10    12    1
    11    12    13    1
    12    13    14   ar
    13    13    15   ar
    14     3     4   ar
    15     4     5   ar
    16     5     6   ar
    17     6    16    1
    18    16    17    2
    19    16    18   am
    20    18    20    1
    21    20    21    1
    22    21    22    1
    23    22    23    1
    24    23    24    1
    25    24    25    1
    26    25    26    1
    27    26    27    1
    28    26    28    1
    29    24    29    1
    30     6     1   ar
    31    28    20    1
    32    11     7    1
    33    29    20    1
    34    12     9    1
    35    27    22    1
    36    18    19    1
@<TRIPOS>MOLECULE
*****
 31 36 0 0 0
SMALL
GASTEIGER

@<TRIPOS>ATOM
      1 C         142.7432  142.2878  163.2714 C.ar    1  UNL1        0.1124
      2 N         142.4938  142.7942  161.8817 N.ar    1  UNL1       -0.2243
      3 C         141.6650  144.0263  161.6700 C.ar    1  UNL1        0.1322
      4 C         141.0857  144.7521  162.8479 C.ar    1  UNL1        0.0345
      5 C         141.3351  144.2458  164.2376 C.ar    1  UNL1        0.0094
      6 C         142.1639  143.0137  164.4494 C.ar    1  UNL1        0.0769
      7 N         141.4155  144.5327  160.2802 N.pl3   1  UNL1       -0.2932
      8 C         140.3497  145.5074  159.8750 C.3     1  UNL1        0.0925
      9 C         140.4635  145.7304  158.3961 C.3     1  UNL1        0.0270
     10 C         141.5997  144.8936  157.8872 C.3     1  UNL1        0.0270
     11 C         142.1880  144.1534  159.0516 C.3     1  UNL1        0.0925
     12 C         140.8155  145.7506  156.9381 C.3     1  UNL1        0.0399
     13 C         140.5660  146.2570  155.5484 C.2     1  UNL1        0.0501
     14 O         139.3843  147.1386  155.2723 O.co2   1  UNL1       -0.5492
     15 O         141.4982  145.8817  154.4347 O.co2   1  UNL1       -0.5492
     16 C         142.4133  142.5073  165.8392 C.2     1  UNL1        0.2477
     17 O         143.7251  142.7814  166.5131 O.2     1  UNL1       -0.2701
     18 N         141.3511  141.7268  166.5550 N.am    1  UNL1       -0.3039
     19 H         140.4901  141.5469  166.1127 H       1  UNL1        0.1496
     20 C         141.6005  141.2204  167.9448 C.3     1  UNL1        0.0570
     21 C         141.1000  141.9963  169.1268 C.3     1  UNL1        0.0180
     22 C         141.3495  141.4899  170.5165 C.3     1  UNL1        0.0016
     23 C         142.0995  140.2076  170.7241 C.3     1  UNL1        0.0001
     24 C         142.6000  139.4317  169.5420 C.3     1  UNL1        0.0016
     25 C         141.0720  142.0904  168.3566 C.3     1  UNL1        0.0001
     26 C         140.3500  143.2787  168.9192 C.3     1  UNL1        0.0016
     27 C         140.5995  142.7723  170.3089 C.3     1  UNL1        0.0001
     28 C         140.8505  142.5027  167.7371 C.3     1  UNL1        0.0180
     29 C         142.3505  139.9381  168.1524 C.3     1  UNL1        0.0180
     30 C         145.0682  141.1373  163.4154 C.3     1  UNL1        0.0757
     31 S         143.5720  141.0556  163.4833 S.3     1  UNL1       -0.0938
@<TRIPOS>UNITY_ATOM_ATTR
14 1
charge -1
@<TRIPOS>BOND
     1    30    31    1
     2    31     1    1
     3     1     2   ar
     4     2     3   ar
     5     3     7    1
     6     7     8    1
     7     9     8    1
     8     9    10    1
     9    10    11    1
    10    10    12    1
    11    12    13    1
    12    13    14   ar
    13    13    15   ar
    14     3     4   ar
    15     4     5   ar
    16     5     6   ar
    17     6    16    1
    18    16    17    2
    19    16    18   am
    20    18    20    1
    21    20    21    1
    22    21    22    1
    23    22    23    1
    24    23    24    1
    25    24    25    1
    26    25    26    1
    27    26    27    1
    28    26    28    1
    29    24    29    1
    30     6     1   ar
    31    28    20    1
    32    11     7    1
    33    29    20    1
    34    12     9    1
    35    27    22    1
    36    18    19    1
@<TRIPOS>MOLECULE
*****
 31 36 0 0 0
SMALL
GASTEIGER

@<TRIPOS>ATOM
      1 C         141.8271  143.5272  159.8860 C.ar    1  UNL1        0.1124
      2 N         141.6230  142.8879  161.2275 N.ar    1  UNL1       -0.2243
      3 C         140.7352  143.5435  162.2433 C.ar    1  UNL1        0.1322
      4 C         140.0515  144.8383  161.9177 C.ar    1  UNL1        0.0345
      5 C         140.2556  145.4775  160.5762 C.ar    1  UNL1        0.0094
      6 C         141.1434  144.8220  159.5603 C.ar    1  UNL1        0.0769
      7 N         140.5311  142.9042  163.5849 N.pl3   1  UNL1       -0.2932
      8 C         140.0650  143.5982  164.8304 C.3     1  UNL1        0.0925
      9 C         140.0030  142.5817  165.9318 C.3     1  UNL1        0.0270
     10 C         140.4308  141.2596  165.3669 C.3     1  UNL1        0.0270
     11 C         140.7571  141.4589  163.9165 C.3     1  UNL1        0.0925
     12 C         140.0401  141.3671  166.8112 C.3     1  UNL1        0.0399
     13 C         139.8360  140.7279  168.1527 C.2     1  UNL1        0.0501
     14 O         138.9237  139.5451  168.2889 O.co2   1  UNL1       -0.5492
     15 O         140.5441  141.2717  169.3581 O.co2   1  UNL1       -0.5492
     16 C         141.3476  145.4612  158.2187 C.2     1  UNL1        0.2477
     17 O         142.5705  146.2909  157.9616 O.2     1  UNL1       -0.2701
     18 N         140.3288  145.2707  157.1344 N.am    1  UNL1       -0.3039
     19 H         139.5262  144.7262  157.3032 H       1  UNL1        0.1496
     20 C         140.5330  145.9100  155.7928 C.3     1  UNL1        0.0570
     21 C         139.8304  147.1923  155.4583 C.3     1  UNL1        0.0180
     22 C         140.0346  147.8315  154.1168 C.3     1  UNL1        0.0016
     23 C         140.9413  147.1883  153.1097 C.3     1  UNL1        0.0001
     24 C         141.6439  145.9060  153.4442 C.3     1  UNL1        0.0016
     25 C         139.8528  146.7238  156.0771 C.3     1  UNL1        0.0001
     26 C         138.9236  147.8355  156.4653 C.3     1  UNL1        0.0016
     27 C         139.1278  148.4746  155.1238 C.3     1  UNL1        0.0001
     28 C         139.6262  146.5531  156.7998 C.3     1  UNL1        0.0180
     29 C         141.4397  145.2668  154.7858 C.3     1  UNL1        0.0180
     30 C         144.1399  142.5530  159.2136 C.3     1  UNL1        0.0757
     31 S         142.7150  142.8716  158.8700 S.3     1  UNL1       -0.0938
@<TRIPOS>UNITY_ATOM_ATTR
14 1
charge -1
@<TRIPOS>BOND
     1    30    31    1
     2    31     1    1
     3     1     2   ar
     4     2     3   ar
     5     3     7    1
     6     7     8    1
     7     9     8    1
     8     9    10    1
     9    10    11    1
    10    10    12    1
    11    12    13    1
    12    13    14   ar
    13    13    15   ar
    14     3     4   ar
    15     4     5   ar
    16     5     6   ar
    17     6    16    1
    18    16    17    2
    19    16    18   am
    20    18    20    1
    21    20    21    1
    22    21    22    1
    23    22    23    1
    24    23    24    1
    25    24    25    1
    26    25    26    1
    27    26    27    1
    28    26    28    1
    29    24    29    1
    30     6     1   ar
    31    28    20    1
    32    11     7    1
    33    29    20    1
    34    12     9    1
    35    27    22    1
    36    18    19    1
@<TRIPOS>MOLECULE
*****
 31 36 0 0 0
SMALL
GASTEIGER

@<TRIPOS>ATOM
      1 C         141.6283  144.1542  162.3481 C.ar    1  UNL1        0.1124
      2 N         141.6205  144.7589  160.9754 N.ar    1  UNL1       -0.2243
      3 C         141.0326  143.9980  159.8242 C.ar    1  UNL1        0.1322
      4 C         140.4525  142.6325  160.0456 C.ar    1  UNL1        0.0345
      5 C         140.4604  142.0279  161.4183 C.ar    1  UNL1        0.0094
      6 C         141.0482  142.7888  162.5696 C.ar    1  UNL1        0.0769
      7 N         141.0247  144.6026  158.4514 N.pl3   1  UNL1       -0.2932
      8 C         140.3390  145.8757  158.0526 C.3     1  UNL1        0.0925
      9 C         140.5917  146.1003  156.5912 C.3     1  UNL1        0.0270
     10 C         141.4336  144.9658  156.0868 C.3     1  UNL1        0.0270
     11 C         141.7012  144.0403  157.2364 C.3     1  UNL1        0.0925
     12 C         141.0058  146.0567  155.1502 C.3     1  UNL1        0.0399
     13 C         140.9979  146.6613  153.7775 C.2     1  UNL1        0.0501
     14 O         140.3022  147.9684  153.5376 O.co2   1  UNL1       -0.5492
     15 O         141.6858  145.9588  152.6445 O.co2   1  UNL1       -0.5492
     16 C         141.0561  142.1842  163.9423 C.2     1  UNL1        0.2477
     17 O         142.2756  141.4652  164.4382 O.2     1  UNL1       -0.2701
     18 N         139.8445  142.2985  164.8192 N.am    1  UNL1       -0.3039
     19 H         139.0441  142.7704  164.4937 H       1  UNL1        0.1496
     20 C         139.8523  141.6939  166.1919 C.3     1  UNL1        0.0570
     21 C         139.1446  140.3955  166.4437 C.3     1  UNL1        0.0180
     22 C         139.1525  139.7910  167.8164 C.3     1  UNL1        0.0016
     23 C         139.8681  140.4848  168.9374 C.3     1  UNL1        0.0001
     24 C         140.5758  141.7831  168.6856 C.3     1  UNL1        0.0016
     25 C         139.2508  140.8519  165.8245 C.3     1  UNL1        0.0001
     26 C         138.4291  139.7017  165.3227 C.3     1  UNL1        0.0016
     27 C         138.4369  139.0972  166.6954 C.3     1  UNL1        0.0001
     28 C         139.1368  141.0001  165.0710 C.3     1  UNL1        0.0180
     29 C         140.5679  142.3877  167.3129 C.3     1  UNL1        0.0180
     30 C         143.7021  145.0947  163.5992 C.3     1  UNL1        0.0757
     31 S         142.2162  144.9151  163.4995 S.3     1  UNL1       -0.0938
@<TRIPOS>UNITY_ATOM_ATTR
14 1
charge -1
@<TRIPOS>BOND
     1    30    31    1
     2    31     1    1
     3     1     2   ar
     4     2     3   ar
     5     3     7    1
     6     7     8    1
     7     9     8    1
     8     9    10    1
     9    10    11    1
    10    10    12    1
    11    12    13    1
    12    13    14   ar
    13    13    15   ar
    14     3     4   ar
    15     4     5   ar
    16     5     6   ar
    17     6    16    1
    18    16    17    2
    19    16    18   am
    20    18    20    1
    21    20    21    1
    22    21    22    1
    23    22    23    1
    24    23    24    1
    25    24    25    1
    26    25    26    1
    27    26    27    1
    28    26    28    1
    29    24    29    1
    30     6     1   ar
    31    28    20    1
    32    11     7    1
    33    29    20    1
    34    12     9    1
    35    27    22    1
    36    18    19    1
@<TRIPOS>MOLECULE
*****
 31 36 0 0 0
SMALL
GASTEIGER

@<TRIPOS>ATOM
      1 C         142.9912  139.9444  163.6152 C.ar    1  UNL1        0.1124
      2 N         142.8895  139.6620  162.1456 N.ar    1  UNL1       -0.2243
      3 C         141.9657  138.5891  161.6503 C.ar    1  UNL1        0.1322
      4 C         141.1435  137.7987  162.6246 C.ar    1  UNL1        0.0345
      5 C         141.2452  138.0812  164.0942 C.ar    1  UNL1        0.0094
      6 C         142.1691  139.1540  164.5895 C.ar    1  UNL1        0.0769
      7 N         141.8639  138.3066  160.1806 N.pl3   1  UNL1       -0.2932
      8 C         142.9043  137.6287  159.3390 C.3     1  UNL1        0.0925
      9 C         142.3874  137.5555  157.9328 C.3     1  UNL1        0.0270
     10 C         141.0276  138.1881  157.9053 C.3     1  UNL1        0.0270
     11 C         140.7041  138.6523  159.2945 C.3     1  UNL1        0.0925
     12 C         141.6194  137.6271  156.6463 C.3     1  UNL1        0.0399
     13 C         141.5177  137.3446  155.1767 C.2     1  UNL1        0.0501
     14 O         140.1881  137.4271  154.4873 O.co2   1  UNL1       -0.5492
     15 O         142.7458  136.9795  154.3964 O.co2   1  UNL1       -0.5492
     16 C         142.2708  139.4365  166.0592 C.2     1  UNL1        0.2477
     17 O         143.1939  138.6230  166.9172 O.2     1  UNL1       -0.2701
     18 N         141.4495  140.5325  166.6709 N.am    1  UNL1       -0.3039
     19 H         140.8436  141.0665  166.1078 H       1  UNL1        0.1496
     20 C         141.5512  140.8151  168.1406 C.3     1  UNL1        0.0570
     21 C         140.3844  140.5352  169.0406 C.3     1  UNL1        0.0180
     22 C         140.4861  140.8177  170.5102 C.3     1  UNL1        0.0016
     23 C         141.7547  141.3801  171.0798 C.3     1  UNL1        0.0001
     24 C         142.9216  141.6599  170.1797 C.3     1  UNL1        0.0016
     25 C         140.5218  140.4591  168.2802 C.3     1  UNL1        0.0001
     26 C         139.1157  139.9729  168.4711 C.3     1  UNL1        0.0016
     27 C         139.2175  140.2554  169.9407 C.3     1  UNL1        0.0001
     28 C         140.2826  140.2527  167.5710 C.3     1  UNL1        0.0180
     29 C         142.8198  141.3774  168.7101 C.3     1  UNL1        0.0180
     30 C         143.4683  142.4492  164.1138 C.3     1  UNL1        0.0757
     31 S         143.9151  141.0173  164.1106 S.3     1  UNL1       -0.0938
@<TRIPOS>UNITY_ATOM_ATTR
14 1
charge -1
@<TRIPOS>BOND
     1    30    31    1
     2    31     1    1
     3     1     2   ar
     4     2     3   ar
     5     3     7    1
     6     7     8    1
     7     9     8    1
     8     9    10    1
     9    10    11    1
    10    10    12    1
    11    12    13    1
    12    13    14   ar
    13    13    15   ar
    14     3     4   ar
    15     4     5   ar
    16     5     6   ar
    17     6    16    1
    18    16    17    2
    19    16    18   am
    20    18    20    1
    21    20    21    1
    22    21    22    1
    23    22    23    1
    24    23    24    1
    25    24    25    1
    26    25    26    1
    27    26    27    1
    28    26    28    1
    29    24    29    1
    30     6     1   ar
    31    28    20    1
    32    11     7    1
    33    29    20    1
    34    12     9    1
    35    27    22    1
    36    18    19    1
@<TRIPOS>MOLECULE
*****
 31 36 0 0 0
SMALL
GASTEIGER

@<TRIPOS>ATOM
      1 C         141.3078  144.4514  162.8577 C.ar    1  UNL1        0.1124
      2 N         141.3856  144.8556  161.4153 N.ar    1  UNL1       -0.2243
      3 C         140.4639  144.2305  160.4105 C.ar    1  UNL1        0.1322
      4 C         139.4643  143.2012  160.8481 C.ar    1  UNL1        0.0345
      5 C         139.3865  142.7971  162.2905 C.ar    1  UNL1        0.0094
      6 C         140.3082  143.4222  163.2953 C.ar    1  UNL1        0.0769
      7 N         140.5417  144.6346  158.9680 N.pl3   1  UNL1       -0.2932
      8 C         141.3726  145.7514  158.4089 C.3     1  UNL1        0.0925
      9 C         141.1467  145.8000  156.9268 C.3     1  UNL1        0.0270
     10 C         140.1762  144.7132  156.5700 C.3     1  UNL1        0.0270
     11 C         139.8024  143.9931  157.8315 C.3     1  UNL1        0.0925
     12 C         140.7289  145.6066  155.4992 C.3     1  UNL1        0.0399
     13 C         140.8067  146.0108  154.0568 C.2     1  UNL1        0.0501
     14 O         140.6691  147.4546  153.6740 O.co2   1  UNL1       -0.5492
     15 O         141.0222  144.9712  152.9971 O.co2   1  UNL1       -0.5492
     16 C         140.2304  143.0180  164.7378 C.2     1  UNL1        0.2477
     17 O         139.3941  143.8138  165.6955 O.2     1  UNL1       -0.2701
     18 N         140.9889  141.8181  165.2225 N.am    1  UNL1       -0.3039
     19 H         141.5378  141.2958  164.5938 H       1  UNL1        0.1496
     20 C         140.9111  141.4140  166.6649 C.3     1  UNL1        0.0570
     21 C         142.0234  141.7724  167.6053 C.3     1  UNL1        0.0180
     22 C         141.9455  141.3683  169.0477 C.3     1  UNL1        0.0016
     23 C         140.7554  140.6057  169.5497 C.3     1  UNL1        0.0001
     24 C         139.6431  140.2472  168.6094 C.3     1  UNL1        0.0016
     25 C         141.8842  141.8878  166.8502 C.3     1  UNL1        0.0001
     26 C         143.2135  142.5350  167.1032 C.3     1  UNL1        0.0016
     27 C         143.1356  142.1309  168.5456 C.3     1  UNL1        0.0001
     28 C         142.1012  142.1766  166.1629 C.3     1  UNL1        0.0180
     29 C         139.7210  140.6514  167.1670 C.3     1  UNL1        0.0180
     30 C         143.7059  144.8230  163.7856 C.3     1  UNL1        0.0757
     31 S         142.2295  145.0765  163.8626 S.3     1  UNL1       -0.0938
@<TRIPOS>UNITY_ATOM_ATTR
14 1
charge -1
@<TRIPOS>BOND
     1    30    31    1
     2    31     1    1
     3     1     2   ar
     4     2     3   ar
     5     3     7    1
     6     7     8    1
     7     9     8    1
     8     9    10    1
     9    10    11    1
    10    10    12    1
    11    12    13    1
    12    13    14   ar
    13    13    15   ar
    14     3     4   ar
    15     4     5   ar
    16     5     6   ar
    17     6    16    1
    18    16    17    2
    19    16    18   am
    20    18    20    1
    21    20    21    1
    22    21    22    1
    23    22    23    1
    24    23    24    1
    25    24    25    1
    26    25    26    1
    27    26    27    1
    28    26    28    1
    29    24    29    1
    30     6     1   ar
    31    28    20    1
    32    11     7    1
    33    29    20    1
    34    12     9    1
    35    27    22    1
    36    18    19    1
@<TRIPOS>MOLECULE
*****
 31 36 0 0 0
SMALL
GASTEIGER

@<TRIPOS>ATOM
      1 C         140.9964  141.6039  163.2985 C.ar    1  UNL1        0.1124
      2 N         140.6687  142.1093  161.9248 N.ar    1  UNL1       -0.2243
      3 C         140.9340  143.5423  161.5698 C.ar    1  UNL1        0.1322
      4 C         141.5270  144.4699  162.5886 C.ar    1  UNL1        0.0345
      5 C         141.8546  143.9645  163.9623 C.ar    1  UNL1        0.0094
      6 C         141.5893  142.5315  164.3173 C.ar    1  UNL1        0.0769
      7 N         140.6064  144.0477  160.1960 N.pl3   1  UNL1       -0.2932
      8 C         140.8418  145.4398  159.6893 C.3     1  UNL1        0.0925
      9 C         140.3668  145.5023  158.2679 C.3     1  UNL1        0.0270
     10 C         139.8377  144.1488  157.8961 C.3     1  UNL1        0.0270
     11 C         139.9858  143.2499  159.0877 C.3     1  UNL1        0.0925
     12 C         139.8186  145.2633  156.8923 C.3     1  UNL1        0.0399
     13 C         139.4910  145.7688  155.5186 C.2     1  UNL1        0.0501
     14 O         140.5734  145.8949  154.4879 O.co2   1  UNL1       -0.5492
     15 O         138.0808  146.1482  155.1755 O.co2   1  UNL1       -0.5492
     16 C         141.9169  142.0261  165.6911 C.2     1  UNL1        0.2477
     17 O         143.3317  141.6729  166.0426 O.2     1  UNL1       -0.2701
     18 N         140.8298  141.8738  166.7133 N.am    1  UNL1       -0.3039
     19 H         139.9012  142.1056  166.4825 H       1  UNL1        0.1496
     20 C         141.1574  141.3684  168.0871 C.3     1  UNL1        0.0570
     21 C         140.8941  142.2305  169.2860 C.3     1  UNL1        0.0180
     22 C         141.2218  141.7250  170.6597 C.3     1  UNL1        0.0016
     23 C         141.8127  140.3574  170.8345 C.3     1  UNL1        0.0001
     24 C         142.0760  139.4953  169.6356 C.3     1  UNL1        0.0016
     25 C         140.7964  142.3108  168.5199 C.3     1  UNL1        0.0001
     26 C         140.3032  143.5980  169.1111 C.3     1  UNL1        0.0016
     27 C         140.6308  143.0926  170.4849 C.3     1  UNL1        0.0001
     28 C         140.5665  142.7359  167.9123 C.3     1  UNL1        0.0180
     29 C         141.7483  140.0008  168.2619 C.3     1  UNL1        0.0180
     30 C         139.3462  139.7358  164.0317 C.3     1  UNL1        0.0757
     31 S         140.7311  140.1708  163.6535 S.3     1  UNL1       -0.0938
@<TRIPOS>UNITY_ATOM_ATTR
14 1
charge -1
@<TRIPOS>BOND
     1    30    31    1
     2    31     1    1
     3     1     2   ar
     4     2     3   ar
     5     3     7    1
     6     7     8    1
     7     9     8    1
     8     9    10    1
     9    10    11    1
    10    10    12    1
    11    12    13    1
    12    13    14   ar
    13    13    15   ar
    14     3     4   ar
    15     4     5   ar
    16     5     6   ar
    17     6    16    1
    18    16    17    2
    19    16    18   am
    20    18    20    1
    21    20    21    1
    22    21    22    1
    23    22    23    1
    24    23    24    1
    25    24    25    1
    26    25    26    1
    27    26    27    1
    28    26    28    1
    29    24    29    1
    30     6     1   ar
    31    28    20    1
    32    11     7    1
    33    29    20    1
    34    12     9    1
    35    27    22    1
    36    18    19    1
@<TRIPOS>MOLECULE
*****
 31 36 0 0 0
SMALL
GASTEIGER

@<TRIPOS>ATOM
      1 C         141.1656  138.5016  163.8352 C.ar    1  UNL1        0.1124
      2 N         141.1177  138.1269  162.3836 N.ar    1  UNL1       -0.2243
      3 C         141.8834  138.9317  161.3757 C.ar    1  UNL1        0.1322
      4 C         142.6969  140.1112  161.8194 C.ar    1  UNL1        0.0345
      5 C         142.7448  140.4859  163.2710 C.ar    1  UNL1        0.0094
      6 C         141.9791  139.6811  164.2789 C.ar    1  UNL1        0.0769
      7 N         141.8355  138.5570  159.9239 N.pl3   1  UNL1       -0.2932
      8 C         140.8052  139.0067  158.9308 C.3     1  UNL1        0.0925
      9 C         141.1424  138.3945  157.6036 C.3     1  UNL1        0.0270
     10 C         142.3812  137.5664  157.7765 C.3     1  UNL1        0.0270
     11 C         142.8095  137.6668  159.2105 C.3     1  UNL1        0.0925
     12 C         141.7203  137.6560  156.4329 C.3     1  UNL1        0.0399
     13 C         141.6724  137.2814  154.9812 C.2     1  UNL1        0.0501
     14 O         142.7868  136.4800  154.3763 O.co2   1  UNL1       -0.5492
     15 O         140.5101  137.7081  154.1344 O.co2   1  UNL1       -0.5492
     16 C         142.0270  140.0557  165.7306 C.2     1  UNL1        0.2477
     17 O         143.0388  139.4190  166.6366 O.2     1  UNL1       -0.2701
     18 N         141.0631  141.0672  166.2763 N.am    1  UNL1       -0.3039
     19 H         140.3990  141.4851  165.6817 H       1  UNL1        0.1496
     20 C         141.1109  141.4418  167.7281 C.3     1  UNL1        0.0570
     21 C         140.1101  140.8650  168.6849 C.3     1  UNL1        0.0180
     22 C         140.1580  141.2397  170.1365 C.3     1  UNL1        0.0016
     23 C         141.2067  142.1912  170.6313 C.3     1  UNL1        0.0001
     24 C         142.2075  142.7681  169.6745 C.3     1  UNL1        0.0016
     25 C         140.2447  140.7958  167.9233 C.3     1  UNL1        0.0001
     26 C         139.0614  139.9134  168.1901 C.3     1  UNL1        0.0016
     27 C         139.1093  140.2881  169.6417 C.3     1  UNL1        0.0001
     28 C         140.0622  140.4903  167.2333 C.3     1  UNL1        0.0180
     29 C         142.1596  142.3934  168.2228 C.3     1  UNL1        0.0180
     30 C         138.9073  137.8212  164.9249 C.3     1  UNL1        0.0757
     31 S         140.3999  137.6967  164.8432 S.3     1  UNL1       -0.0938
@<TRIPOS>UNITY_ATOM_ATTR
14 1
charge -1
@<TRIPOS>BOND
     1    30    31    1
     2    31     1    1
     3     1     2   ar
     4     2     3   ar
     5     3     7    1
     6     7     8    1
     7     9     8    1
     8     9    10    1
     9    10    11    1
    10    10    12    1
    11    12    13    1
    12    13    14   ar
    13    13    15   ar
    14     3     4   ar
    15     4     5   ar
    16     5     6   ar
    17     6    16    1
    18    16    17    2
    19    16    18   am
    20    18    20    1
    21    20    21    1
    22    21    22    1
    23    22    23    1
    24    23    24    1
    25    24    25    1
    26    25    26    1
    27    26    27    1
    28    26    28    1
    29    24    29    1
    30     6     1   ar
    31    28    20    1
    32    11     7    1
    33    29    20    1
    34    12     9    1
    35    27    22    1
    36    18    19    1
