@<TRIPOS>MOLECULE
*****
 33 37 0 0 0
SMALL
GASTEIGER

@<TRIPOS>ATOM
      1 C         140.8802  142.5767  166.2018 C.ar    1  UNL1        0.0200
      2 C         140.2450  143.0622  167.4710 C.ar    1  UNL1        0.0343
      3 C         140.4541  142.3079  168.7507 C.ar    1  UNL1        0.1744
      4 F         139.8189  142.7935  170.0198 F       1  UNL1       -0.2010
      5 C         141.2985  141.0682  168.7610 C.ar    1  UNL1        0.1754
      6 N         141.6806  140.1234  169.8616 N.ar    1  UNL1       -0.2230
      7 C         142.5521  139.0539  169.2726 C.ar    1  UNL1        0.1140
      8 C         142.7084  139.3378  167.8080 C.ar    1  UNL1        0.0663
      9 N         141.9337  140.5827  167.4919 N.ar    1  UNL1       -0.2904
     10 C         141.7245  141.3369  166.2123 C.ar    1  UNL1        0.0812
     11 C         140.2525  144.8395  162.3631 C.ar    1  UNL1        0.0808
     12 C         141.6409  144.4839  162.8057 C.ar    1  UNL1        0.0068
     13 C         141.8502  143.7296  164.0853 C.ar    1  UNL1        0.0003
     14 C         140.6710  143.3309  164.9223 C.ar    1  UNL1        0.0038
     15 C         139.2826  143.6865  164.4797 C.ar    1  UNL1        0.0298
     16 C         139.0733  144.4408  163.2001 C.ar    1  UNL1        0.1444
     17 F         137.6849  144.7963  162.7576 F       1  UNL1       -0.2040
     18 C         140.3636  145.7970  158.5133 C.3     1  UNL1        0.1109
     19 N         140.5728  145.0426  159.7929 N.am    1  UNL1       -0.2991
     20 C         140.0433  145.5937  161.0835 C.2     1  UNL1        0.2481
     21 O         139.3046  146.8992  161.0947 O.2     1  UNL1       -0.2701
     22 H         141.0576  144.1858  159.7855 H       1  UNL1        0.1498
     23 C         143.5005  138.5203  166.8311 C.3     1  UNL1        0.0720
     24 C         143.0386  138.3955  165.4094 C.ar    1  UNL1       -0.0161
     25 C         141.7620  137.6728  165.0963 C.ar    1  UNL1       -0.0023
     26 C         141.3001  137.5480  163.6746 C.ar    1  UNL1        0.0188
     27 C         142.1148  138.1460  162.5661 C.ar    1  UNL1        0.0813
     28 N         141.6529  138.0212  161.1445 N.ar    1  UNL1       -0.2438
     29 C         142.4675  138.6192  160.0360 C.ar    1  UNL1        0.0988
     30 C         143.7441  139.3419  160.3491 C.ar    1  UNL1        0.0207
     31 C         144.2060  139.4667  161.7708 C.ar    1  UNL1        0.0031
     32 C         143.3913  138.8687  162.8792 C.ar    1  UNL1        0.0174
     33 C         143.8532  138.9935  164.3009 C.ar    1  UNL1       -0.0024
@<TRIPOS>BOND
     1    18    19    1
     2    19    20   am
     3    20    21    2
     4    20    11    1
     5    11    12   ar
     6    12    13   ar
     7    13    14   ar
     8    14     1    1
     9     1     2   ar
    10     2     3   ar
    11     3     4    1
    12     3     5   ar
    13     5     6   ar
    14     6     7   ar
    15     7     8   ar
    16     8    23    1
    17    23    24    1
    18    24    25   ar
    19    25    26   ar
    20    26    27   ar
    21    27    28   ar
    22    28    29   ar
    23    29    30   ar
    24    30    31   ar
    25    31    32   ar
    26    32    33   ar
    27     8     9   ar
    28     9    10   ar
    29    14    15   ar
    30    15    16   ar
    31    16    17    1
    32    16    11   ar
    33    10     1   ar
    34     9     5   ar
    35    33    24   ar
    36    32    27   ar
    37    19    22    1
@<TRIPOS>MOLECULE
*****
 33 37 0 0 0
SMALL
GASTEIGER

@<TRIPOS>ATOM
      1 C         140.8354  142.6267  166.5164 C.ar    1  UNL1        0.0200
      2 C         140.2317  143.1797  167.7733 C.ar    1  UNL1        0.0343
      3 C         140.4374  142.4707  169.0792 C.ar    1  UNL1        0.1744
      4 F         139.8337  143.0236  170.3361 F       1  UNL1       -0.2010
      5 C         141.2469  141.2088  169.1279 C.ar    1  UNL1        0.1754
      6 N         141.6178  140.2975  170.2601 N.ar    1  UNL1       -0.2230
      7 C         142.4507  139.1813  169.7030 C.ar    1  UNL1        0.1140
      8 C         142.5946  139.4028  168.2264 C.ar    1  UNL1        0.0663
      9 N         141.8506  140.6559  167.8710 N.ar    1  UNL1       -0.2904
     10 C         141.6448  141.3649  166.5653 C.ar    1  UNL1        0.0812
     11 C         140.2178  144.7539  162.5992 C.ar    1  UNL1        0.0808
     12 C         141.6071  144.4545  163.0793 C.ar    1  UNL1        0.0068
     13 C         141.8130  143.7455  164.3850 C.ar    1  UNL1        0.0003
     14 C         140.6296  143.3358  165.2107 C.ar    1  UNL1        0.0038
     15 C         139.2403  143.6351  164.7307 C.ar    1  UNL1        0.0298
     16 C         139.0345  144.3442  163.4249 C.ar    1  UNL1        0.1444
     17 F         137.6452  144.6435  162.9449 F       1  UNL1       -0.2040
     18 C         140.3956  145.6100  158.7282 C.3     1  UNL1        0.1109
     19 N         140.6014  144.9009  160.0338 N.am    1  UNL1       -0.2991
     20 C         140.0120  145.4629  161.2935 C.2     1  UNL1        0.2481
     21 O         139.2169  146.7339  161.2476 O.2     1  UNL1       -0.2701
     22 H         141.1233  144.0667  160.0640 H       1  UNL1        0.1498
     23 C         143.3499  138.5254  167.2727 C.3     1  UNL1        0.0720
     24 C         143.0823  138.6143  165.7993 C.ar    1  UNL1       -0.0161
     25 C         144.1346  139.1550  164.8773 C.ar    1  UNL1       -0.0023
     26 C         143.8671  139.2439  163.4040 C.ar    1  UNL1        0.0188
     27 C         142.5472  138.7922  162.8528 C.ar    1  UNL1        0.0813
     28 N         142.2797  138.8811  161.3796 N.ar    1  UNL1       -0.2438
     29 C         140.9598  138.4294  160.8284 C.ar    1  UNL1        0.0988
     30 C         139.9075  137.8887  161.7505 C.ar    1  UNL1        0.0207
     31 C         140.1750  137.7998  163.2237 C.ar    1  UNL1        0.0031
     32 C         141.4948  138.2515  163.7749 C.ar    1  UNL1        0.0174
     33 C         141.7624  138.1626  165.2482 C.ar    1  UNL1       -0.0024
@<TRIPOS>BOND
     1    18    19    1
     2    19    20   am
     3    20    21    2
     4    20    11    1
     5    11    12   ar
     6    12    13   ar
     7    13    14   ar
     8    14     1    1
     9     1     2   ar
    10     2     3   ar
    11     3     4    1
    12     3     5   ar
    13     5     6   ar
    14     6     7   ar
    15     7     8   ar
    16     8    23    1
    17    23    24    1
    18    24    25   ar
    19    25    26   ar
    20    26    27   ar
    21    27    28   ar
    22    28    29   ar
    23    29    30   ar
    24    30    31   ar
    25    31    32   ar
    26    32    33   ar
    27     8     9   ar
    28     9    10   ar
    29    14    15   ar
    30    15    16   ar
    31    16    17    1
    32    16    11   ar
    33    10     1   ar
    34     9     5   ar
    35    33    24   ar
    36    32    27   ar
    37    19    22    1
@<TRIPOS>MOLECULE
*****
 33 37 0 0 0
SMALL
GASTEIGER

@<TRIPOS>ATOM
      1 C         142.3375  141.8682  165.6044 C.ar    1  UNL1        0.0200
      2 C         143.2756  142.3579  166.6675 C.ar    1  UNL1        0.0343
      3 C         142.9858  142.0750  168.1119 C.ar    1  UNL1        0.1744
      4 F         143.9239  142.5647  169.1750 F       1  UNL1       -0.2010
      5 C         141.7579  141.3024  168.4930 C.ar    1  UNL1        0.1754
      6 N         141.2144  140.8741  169.8239 N.ar    1  UNL1       -0.2230
      7 C         139.9404  140.1197  169.5834 C.ar    1  UNL1        0.1140
      8 C         139.6965  140.0817  168.1037 C.ar    1  UNL1        0.0663
      9 N         140.8198  140.8127  167.4299 N.ar    1  UNL1       -0.2904
     10 C         141.1096  141.0956  165.9856 C.ar    1  UNL1        0.0812
     11 C         143.2069  142.7170  161.2716 C.ar    1  UNL1        0.0808
     12 C         144.1684  143.1665  162.3316 C.ar    1  UNL1        0.0068
     13 C         143.8786  142.8836  163.7758 C.ar    1  UNL1        0.0003
     14 C         142.6273  142.1512  164.1602 C.ar    1  UNL1        0.0038
     15 C         141.6658  141.7016  163.1003 C.ar    1  UNL1        0.0298
     16 C         141.9556  141.9846  161.6559 C.ar    1  UNL1        0.1444
     17 F         140.9941  141.5350  160.5960 F       1  UNL1       -0.2040
     18 C         144.7828  142.4435  157.6396 C.3     1  UNL1        0.1109
     19 N         144.4930  142.1605  159.0838 N.am    1  UNL1       -0.2991
     20 C         143.4968  143.0000  159.8273 C.2     1  UNL1        0.2481
     21 O         142.7903  144.1224  159.1266 O.2     1  UNL1       -0.2701
     22 H         144.9567  141.4238  159.5437 H       1  UNL1        0.1498
     23 C         138.5336  139.4277  167.4183 C.3     1  UNL1        0.0720
     24 C         138.5784  139.1770  165.9401 C.ar    1  UNL1       -0.0161
     25 C         139.0760  137.8621  165.4171 C.ar    1  UNL1       -0.0023
     26 C         139.1209  137.6114  163.9389 C.ar    1  UNL1        0.0188
     27 C         138.6681  138.6756  162.9836 C.ar    1  UNL1        0.0813
     28 N         138.7130  138.4249  161.5054 N.ar    1  UNL1       -0.2438
     29 C         138.2603  139.4891  160.5502 C.ar    1  UNL1        0.0988
     30 C         137.7627  140.8040  161.0731 C.ar    1  UNL1        0.0207
     31 C         137.7179  141.0547  162.5513 C.ar    1  UNL1        0.0031
     32 C         138.1706  139.9905  163.5065 C.ar    1  UNL1        0.0174
     33 C         138.1257  140.2412  164.9848 C.ar    1  UNL1       -0.0024
@<TRIPOS>BOND
     1    18    19    1
     2    19    20   am
     3    20    21    2
     4    20    11    1
     5    11    12   ar
     6    12    13   ar
     7    13    14   ar
     8    14     1    1
     9     1     2   ar
    10     2     3   ar
    11     3     4    1
    12     3     5   ar
    13     5     6   ar
    14     6     7   ar
    15     7     8   ar
    16     8    23    1
    17    23    24    1
    18    24    25   ar
    19    25    26   ar
    20    26    27   ar
    21    27    28   ar
    22    28    29   ar
    23    29    30   ar
    24    30    31   ar
    25    31    32   ar
    26    32    33   ar
    27     8     9   ar
    28     9    10   ar
    29    14    15   ar
    30    15    16   ar
    31    16    17    1
    32    16    11   ar
    33    10     1   ar
    34     9     5   ar
    35    33    24   ar
    36    32    27   ar
    37    19    22    1
@<TRIPOS>MOLECULE
*****
 33 37 0 0 0
SMALL
GASTEIGER

@<TRIPOS>ATOM
      1 C         142.1013  142.2429  165.5589 C.ar    1  UNL1        0.0200
      2 C         143.1532  142.6562  166.5452 C.ar    1  UNL1        0.0343
      3 C         143.0631  142.2024  167.9722 C.ar    1  UNL1        0.1744
      4 F         144.1150  142.6157  168.9584 F       1  UNL1       -0.2010
      5 C         141.9212  141.3354  168.4127 C.ar    1  UNL1        0.1754
      6 N         141.5697  140.7378  169.7428 N.ar    1  UNL1       -0.2230
      7 C         140.3005  139.9552  169.5787 C.ar    1  UNL1        0.1140
      8 C         139.8677  140.0692  168.1470 C.ar    1  UNL1        0.0663
      9 N         140.8693  140.9221  167.4264 N.ar    1  UNL1       -0.2904
     10 C         140.9593  141.3759  165.9995 C.ar    1  UNL1        0.0812
     11 C         142.3719  143.6044  161.2783 C.ar    1  UNL1        0.0808
     12 C         141.0358  143.5163  161.9544 C.ar    1  UNL1        0.0068
     13 C         140.9455  143.0625  163.3812 C.ar    1  UNL1        0.0003
     14 C         142.1914  142.6968  164.1321 C.ar    1  UNL1        0.0038
     15 C         143.5276  142.7848  163.4562 C.ar    1  UNL1        0.0298
     16 C         143.6179  143.2386  162.0292 C.ar    1  UNL1        0.1444
     17 F         144.9540  143.3267  161.3533 F       1  UNL1       -0.2040
     18 C         141.9090  145.8005  158.0053 C.3     1  UNL1        0.1109
     19 N         141.8188  145.3467  159.4322 N.am    1  UNL1       -0.2991
     20 C         142.4621  144.0582  159.8515 C.2     1  UNL1        0.2481
     21 O         143.1956  143.2234  158.8440 O.2     1  UNL1       -0.2701
     22 H         141.3374  145.8946  160.0935 H       1  UNL1        0.1498
     23 C         138.6475  139.4405  167.5421 C.3     1  UNL1        0.0720
     24 C         138.5979  139.1651  166.0684 C.ar    1  UNL1       -0.0161
     25 C         138.9806  137.8126  165.5449 C.ar    1  UNL1       -0.0023
     26 C         138.9311  137.5372  164.0712 C.ar    1  UNL1        0.0188
     27 C         138.4987  138.6144  163.1210 C.ar    1  UNL1        0.0813
     28 N         138.4491  138.3390  161.6474 N.ar    1  UNL1       -0.2438
     29 C         138.0168  139.4161  160.6973 C.ar    1  UNL1        0.0988
     30 C         137.6340  140.7687  161.2208 C.ar    1  UNL1        0.0207
     31 C         137.6836  141.0441  162.6945 C.ar    1  UNL1        0.0031
     32 C         138.1159  139.9669  163.6446 C.ar    1  UNL1        0.0174
     33 C         138.1655  140.2423  165.1183 C.ar    1  UNL1       -0.0024
@<TRIPOS>BOND
     1    18    19    1
     2    19    20   am
     3    20    21    2
     4    20    11    1
     5    11    12   ar
     6    12    13   ar
     7    13    14   ar
     8    14     1    1
     9     1     2   ar
    10     2     3   ar
    11     3     4    1
    12     3     5   ar
    13     5     6   ar
    14     6     7   ar
    15     7     8   ar
    16     8    23    1
    17    23    24    1
    18    24    25   ar
    19    25    26   ar
    20    26    27   ar
    21    27    28   ar
    22    28    29   ar
    23    29    30   ar
    24    30    31   ar
    25    31    32   ar
    26    32    33   ar
    27     8     9   ar
    28     9    10   ar
    29    14    15   ar
    30    15    16   ar
    31    16    17    1
    32    16    11   ar
    33    10     1   ar
    34     9     5   ar
    35    33    24   ar
    36    32    27   ar
    37    19    22    1
@<TRIPOS>MOLECULE
*****
 33 37 0 0 0
SMALL
GASTEIGER

@<TRIPOS>ATOM
      1 C         139.3090  138.9796  163.8544 C.ar    1  UNL1        0.0200
      2 C         138.6309  137.8678  164.5989 C.ar    1  UNL1        0.0343
      3 C         138.4755  137.9483  166.0887 C.ar    1  UNL1        0.1744
      4 F         137.7974  136.8365  166.8332 F       1  UNL1       -0.2010
      5 C         138.9981  139.1405  166.8339 C.ar    1  UNL1        0.1754
      6 N         138.9902  139.4957  168.2912 N.ar    1  UNL1       -0.2230
      7 C         139.6634  140.8271  168.4475 C.ar    1  UNL1        0.1140
      8 C         140.0873  141.2946  167.0867 C.ar    1  UNL1        0.0663
      9 N         139.6761  140.2522  166.0895 N.ar    1  UNL1       -0.2904
     10 C         139.8316  140.1718  164.5998 C.ar    1  UNL1        0.0812
     11 C         139.7750  138.7382  159.3851 C.ar    1  UNL1        0.0808
     12 C         140.8370  138.1738  160.2816 C.ar    1  UNL1        0.0068
     13 C         140.6817  138.2543  161.7713 C.ar    1  UNL1        0.0003
     14 C         139.4644  138.8991  162.3647 C.ar    1  UNL1        0.0038
     15 C         138.4023  139.4635  161.4684 C.ar    1  UNL1        0.0298
     16 C         138.5576  139.3830  159.9785 C.ar    1  UNL1        0.1444
     17 F         137.4955  139.9474  159.0822 F       1  UNL1       -0.2040
     18 C         139.6346  137.3506  155.6697 C.3     1  UNL1        0.1109
     19 N         139.4792  137.4310  157.1594 N.am    1  UNL1       -0.2991
     20 C         139.9304  138.6577  157.8954 C.2     1  UNL1        0.2481
     21 O         140.5370  139.8039  157.1417 O.2     1  UNL1       -0.2701
     22 H         139.0810  136.6787  157.6541 H       1  UNL1        0.1498
     23 C         140.7977  142.5791  166.7774 C.3     1  UNL1        0.0720
     24 C         140.4248  143.3673  165.5568 C.ar    1  UNL1       -0.0161
     25 C         139.1525  144.1615  165.5367 C.ar    1  UNL1       -0.0023
     26 C         138.7796  144.9497  164.3162 C.ar    1  UNL1        0.0188
     27 C         139.6790  144.9437  163.1158 C.ar    1  UNL1        0.0813
     28 N         139.3061  145.7319  161.8953 N.ar    1  UNL1       -0.2438
     29 C         140.2055  145.7258  160.6949 C.ar    1  UNL1        0.0988
     30 C         141.4778  144.9316  160.7150 C.ar    1  UNL1        0.0207
     31 C         141.8507  144.1434  161.9354 C.ar    1  UNL1        0.0031
     32 C         140.9513  144.1494  163.1358 C.ar    1  UNL1        0.0174
     33 C         141.3242  143.3612  164.3564 C.ar    1  UNL1       -0.0024
@<TRIPOS>BOND
     1    18    19    1
     2    19    20   am
     3    20    21    2
     4    20    11    1
     5    11    12   ar
     6    12    13   ar
     7    13    14   ar
     8    14     1    1
     9     1     2   ar
    10     2     3   ar
    11     3     4    1
    12     3     5   ar
    13     5     6   ar
    14     6     7   ar
    15     7     8   ar
    16     8    23    1
    17    23    24    1
    18    24    25   ar
    19    25    26   ar
    20    26    27   ar
    21    27    28   ar
    22    28    29   ar
    23    29    30   ar
    24    30    31   ar
    25    31    32   ar
    26    32    33   ar
    27     8     9   ar
    28     9    10   ar
    29    14    15   ar
    30    15    16   ar
    31    16    17    1
    32    16    11   ar
    33    10     1   ar
    34     9     5   ar
    35    33    24   ar
    36    32    27   ar
    37    19    22    1
@<TRIPOS>MOLECULE
*****
 33 37 0 0 0
SMALL
GASTEIGER

@<TRIPOS>ATOM
      1 C         139.1627  139.2098  164.8436 C.ar    1  UNL1        0.0200
      2 C         138.1340  138.3495  165.5156 C.ar    1  UNL1        0.0343
      3 C         137.8978  138.4771  166.9915 C.ar    1  UNL1        0.1744
      4 F         136.8691  137.6168  167.6635 F       1  UNL1       -0.2010
      5 C         138.6903  139.4650  167.7951 C.ar    1  UNL1        0.1754
      6 N         138.6778  139.8117  169.2544 N.ar    1  UNL1       -0.2230
      7 C         139.6988  140.8863  169.4844 C.ar    1  UNL1        0.1140
      8 C         140.3423  141.2037  168.1670 C.ar    1  UNL1        0.0663
      9 N         139.7190  140.3253  167.1231 N.ar    1  UNL1       -0.2904
     10 C         139.9552  140.1977  165.6473 C.ar    1  UNL1        0.0812
     11 C         139.8714  138.8269  160.4162 C.ar    1  UNL1        0.0808
     12 C         138.8460  137.9633  161.0892 C.ar    1  UNL1        0.0068
     13 C         138.6098  138.0909  162.5649 C.ar    1  UNL1        0.0003
     14 C         139.3989  139.0822  163.3678 C.ar    1  UNL1        0.0038
     15 C         140.4243  139.9458  162.6950 C.ar    1  UNL1        0.0298
     16 C         140.6605  139.8182  161.2191 C.ar    1  UNL1        0.1444
     17 F         141.6859  140.6818  160.5463 F       1  UNL1       -0.2040
     18 C         141.6690  138.0869  156.9564 C.3     1  UNL1        0.1109
     19 N         141.4329  138.2145  158.4321 N.am    1  UNL1       -0.2991
     20 C         140.1076  138.6993  158.9405 C.2     1  UNL1        0.2481
     21 O         139.0183  139.0564  157.9730 O.2     1  UNL1       -0.2701
     22 H         142.1478  137.9801  159.0671 H       1  UNL1        0.1498
     23 C         141.4199  142.2209  167.9345 C.3     1  UNL1        0.0720
     24 C         141.9207  142.4787  166.5442 C.ar    1  UNL1       -0.0161
     25 C         141.1054  143.3055  165.5947 C.ar    1  UNL1       -0.0023
     26 C         141.6061  143.5633  164.2045 C.ar    1  UNL1        0.0188
     27 C         142.9221  142.9942  163.7637 C.ar    1  UNL1        0.0813
     28 N         143.4228  143.2520  162.3734 N.ar    1  UNL1       -0.2438
     29 C         144.7388  142.6829  161.9327 C.ar    1  UNL1        0.0988
     30 C         145.5541  141.8560  162.8822 C.ar    1  UNL1        0.0207
     31 C         145.0534  141.5983  164.2725 C.ar    1  UNL1        0.0031
     32 C         143.7374  142.1673  164.7132 C.ar    1  UNL1        0.0174
     33 C         143.2366  141.9096  166.1035 C.ar    1  UNL1       -0.0024
@<TRIPOS>BOND
     1    18    19    1
     2    19    20   am
     3    20    21    2
     4    20    11    1
     5    11    12   ar
     6    12    13   ar
     7    13    14   ar
     8    14     1    1
     9     1     2   ar
    10     2     3   ar
    11     3     4    1
    12     3     5   ar
    13     5     6   ar
    14     6     7   ar
    15     7     8   ar
    16     8    23    1
    17    23    24    1
    18    24    25   ar
    19    25    26   ar
    20    26    27   ar
    21    27    28   ar
    22    28    29   ar
    23    29    30   ar
    24    30    31   ar
    25    31    32   ar
    26    32    33   ar
    27     8     9   ar
    28     9    10   ar
    29    14    15   ar
    30    15    16   ar
    31    16    17    1
    32    16    11   ar
    33    10     1   ar
    34     9     5   ar
    35    33    24   ar
    36    32    27   ar
    37    19    22    1
@<TRIPOS>MOLECULE
*****
 33 37 0 0 0
SMALL
GASTEIGER

@<TRIPOS>ATOM
      1 C         139.3716  138.9636  164.3602 C.ar    1  UNL1        0.0200
      2 C         138.4061  138.0257  165.0221 C.ar    1  UNL1        0.0343
      3 C         138.1290  138.1483  166.4913 C.ar    1  UNL1        0.1744
      4 F         137.1635  137.2103  167.1532 F       1  UNL1       -0.2010
      5 C         138.8173  139.2087  167.2983 C.ar    1  UNL1        0.1754
      6 N         138.7447  139.5685  168.7527 N.ar    1  UNL1       -0.2230
      7 C         139.6654  140.7288  168.9898 C.ar    1  UNL1        0.1140
      8 C         140.3069  141.0862  167.6817 C.ar    1  UNL1        0.0663
      9 N         139.7828  140.1467  166.6364 N.ar    1  UNL1       -0.2904
     10 C         140.0599  140.0241  165.1674 C.ar    1  UNL1        0.0812
     11 C         140.2031  138.5957  159.9530 C.ar    1  UNL1        0.0808
     12 C         138.9164  139.2053  160.4252 C.ar    1  UNL1        0.0068
     13 C         138.6392  139.3280  161.8943 C.ar    1  UNL1        0.0003
     14 C         139.6487  138.8410  162.8912 C.ar    1  UNL1        0.0038
     15 C         140.9353  138.2314  162.4190 C.ar    1  UNL1        0.0298
     16 C         141.2125  138.1088  160.9499 C.ar    1  UNL1        0.1444
     17 F         142.4992  137.4991  160.4778 F       1  UNL1       -0.2040
     18 C         141.9969  138.9612  156.4319 C.3     1  UNL1        0.1109
     19 N         141.7199  139.0839  157.9010 N.am    1  UNL1       -0.2991
     20 C         140.4801  138.4731  158.4840 C.2     1  UNL1        0.2481
     21 O         139.5174  137.7396  157.5979 O.2     1  UNL1       -0.2701
     22 H         142.3518  139.5653  158.4825 H       1  UNL1        0.1498
     23 C         141.2985  142.1893  167.4583 C.3     1  UNL1        0.0720
     24 C         141.4212  142.8248  166.1051 C.ar    1  UNL1       -0.0161
     25 C         142.7084  142.7214  165.3419 C.ar    1  UNL1       -0.0023
     26 C         142.8311  143.3569  163.9887 C.ar    1  UNL1        0.0188
     27 C         141.6666  144.0957  163.3987 C.ar    1  UNL1        0.0813
     28 N         141.7893  144.7312  162.0455 N.ar    1  UNL1       -0.2438
     29 C         140.6248  145.4700  161.4556 C.ar    1  UNL1        0.0988
     30 C         139.3376  145.5734  162.2188 C.ar    1  UNL1        0.0207
     31 C         139.2149  144.9379  163.5719 C.ar    1  UNL1        0.0031
     32 C         140.3794  144.1991  164.1619 C.ar    1  UNL1        0.0174
     33 C         140.2567  143.5636  165.5151 C.ar    1  UNL1       -0.0024
@<TRIPOS>BOND
     1    18    19    1
     2    19    20   am
     3    20    21    2
     4    20    11    1
     5    11    12   ar
     6    12    13   ar
     7    13    14   ar
     8    14     1    1
     9     1     2   ar
    10     2     3   ar
    11     3     4    1
    12     3     5   ar
    13     5     6   ar
    14     6     7   ar
    15     7     8   ar
    16     8    23    1
    17    23    24    1
    18    24    25   ar
    19    25    26   ar
    20    26    27   ar
    21    27    28   ar
    22    28    29   ar
    23    29    30   ar
    24    30    31   ar
    25    31    32   ar
    26    32    33   ar
    27     8     9   ar
    28     9    10   ar
    29    14    15   ar
    30    15    16   ar
    31    16    17    1
    32    16    11   ar
    33    10     1   ar
    34     9     5   ar
    35    33    24   ar
    36    32    27   ar
    37    19    22    1
@<TRIPOS>MOLECULE
*****
 33 37 0 0 0
SMALL
GASTEIGER

@<TRIPOS>ATOM
      1 C         139.8094  139.0282  163.8200 C.ar    1  UNL1        0.0200
      2 C         138.5086  138.4526  163.3439 C.ar    1  UNL1        0.0343
      3 C         138.3135  138.1421  161.8893 C.ar    1  UNL1        0.1744
      4 F         137.0127  137.5666  161.4132 F       1  UNL1       -0.2010
      5 C         139.4192  138.4073  160.9111 C.ar    1  UNL1        0.1754
      6 N         139.5172  138.2045  159.4281 N.ar    1  UNL1       -0.2230
      7 C         140.8785  138.6548  158.9876 C.ar    1  UNL1        0.1140
      8 C         141.6219  139.1358  160.1984 C.ar    1  UNL1        0.0663
      9 N         140.7199  138.9829  161.3871 N.ar    1  UNL1       -0.2904
     10 C         140.9151  139.2933  162.8416 C.ar    1  UNL1        0.0812
     11 C         140.3948  139.9595  168.1835 C.ar    1  UNL1        0.0808
     12 C         139.0114  139.7650  167.6371 C.ar    1  UNL1        0.0068
     13 C         138.8163  139.4546  166.1826 C.ar    1  UNL1        0.0003
     14 C         140.0045  139.3386  165.2745 C.ar    1  UNL1        0.0038
     15 C         141.3878  139.5331  165.8208 C.ar    1  UNL1        0.0298
     16 C         141.5830  139.8435  167.2754 C.ar    1  UNL1        0.1444
     17 F         142.9663  140.0380  167.8218 F       1  UNL1       -0.2040
     18 C         141.5973  141.7726  171.5026 C.3     1  UNL1        0.1109
     19 N         141.4023  141.4623  170.0481 N.am    1  UNL1       -0.2991
     20 C         140.5898  140.2699  169.6380 C.2     1  UNL1        0.2481
     21 O         139.9723  139.3880  170.6824 O.2     1  UNL1       -0.2701
     22 H         141.8076  142.0411  169.3626 H       1  UNL1        0.1498
     23 C         143.0215  139.6752  160.2172 C.3     1  UNL1        0.0720
     24 C         143.4865  140.5141  161.3705 C.ar    1  UNL1       -0.0161
     25 C         144.4197  139.9341  162.3916 C.ar    1  UNL1       -0.0023
     26 C         144.8847  140.7730  163.5448 C.ar    1  UNL1        0.0188
     27 C         144.4166  142.1920  163.6769 C.ar    1  UNL1        0.0813
     28 N         144.8817  143.0309  164.8301 N.ar    1  UNL1       -0.2438
     29 C         144.4136  144.4499  164.9621 C.ar    1  UNL1        0.0988
     30 C         143.4805  145.0299  163.9409 C.ar    1  UNL1        0.0207
     31 C         143.0154  144.1910  162.7877 C.ar    1  UNL1        0.0031
     32 C         143.4835  142.7721  162.6557 C.ar    1  UNL1        0.0174
     33 C         143.0184  141.9331  161.5025 C.ar    1  UNL1       -0.0024
@<TRIPOS>BOND
     1    18    19    1
     2    19    20   am
     3    20    21    2
     4    20    11    1
     5    11    12   ar
     6    12    13   ar
     7    13    14   ar
     8    14     1    1
     9     1     2   ar
    10     2     3   ar
    11     3     4    1
    12     3     5   ar
    13     5     6   ar
    14     6     7   ar
    15     7     8   ar
    16     8    23    1
    17    23    24    1
    18    24    25   ar
    19    25    26   ar
    20    26    27   ar
    21    27    28   ar
    22    28    29   ar
    23    29    30   ar
    24    30    31   ar
    25    31    32   ar
    26    32    33   ar
    27     8     9   ar
    28     9    10   ar
    29    14    15   ar
    30    15    16   ar
    31    16    17    1
    32    16    11   ar
    33    10     1   ar
    34     9     5   ar
    35    33    24   ar
    36    32    27   ar
    37    19    22    1
@<TRIPOS>MOLECULE
*****
 33 37 0 0 0
SMALL
GASTEIGER

@<TRIPOS>ATOM
      1 C         143.8841  142.0452  163.4348 C.ar    1  UNL1        0.0200
      2 C         144.5711  143.2662  163.9707 C.ar    1  UNL1        0.0343
      3 C         144.5220  143.5709  165.4387 C.ar    1  UNL1        0.1744
      4 F         145.2090  144.7919  165.9747 F       1  UNL1       -0.2010
      5 C         143.7861  142.6545  166.3706 C.ar    1  UNL1        0.1754
      6 N         143.5673  142.6959  167.8540 N.ar    1  UNL1       -0.2230
      7 C         142.7452  141.5005  168.2349 C.ar    1  UNL1        0.1140
      8 C         142.4558  140.7202  166.9868 C.ar    1  UNL1        0.0663
      9 N         143.0992  141.4335  165.8347 N.ar    1  UNL1       -0.2904
     10 C         143.1482  141.1288  164.3668 C.ar    1  UNL1        0.0812
     11 C         144.0313  141.1312  159.0310 C.ar    1  UNL1        0.0808
     12 C         144.2597  142.5328  159.5142 C.ar    1  UNL1        0.0068
     13 C         144.2106  142.8375  160.9821 C.ar    1  UNL1        0.0003
     14 C         143.9332  141.7406  161.9669 C.ar    1  UNL1        0.0038
     15 C         143.7049  140.3390  161.4838 C.ar    1  UNL1        0.0298
     16 C         143.7539  140.0343  160.0158 C.ar    1  UNL1        0.1444
     17 F         143.5256  138.6327  159.5327 F       1  UNL1       -0.2040
     18 C         145.3586  139.9034  155.4982 C.3     1  UNL1        0.1109
     19 N         145.3096  140.2080  156.9661 N.am    1  UNL1       -0.2991
     20 C         144.0804  140.8267  157.5631 C.2     1  UNL1        0.2481
     21 O         142.9003  141.1408  156.6922 O.2     1  UNL1       -0.2701
     22 H         146.0842  140.0018  157.5378 H       1  UNL1        0.1498
     23 C         141.6625  139.4498  166.9053 C.3     1  UNL1        0.0720
     24 C         141.1201  138.9877  165.5853 C.ar    1  UNL1       -0.0161
     25 C         141.7583  137.8304  164.8759 C.ar    1  UNL1       -0.0023
     26 C         141.2160  137.3683  163.5559 C.ar    1  UNL1        0.0188
     27 C         140.0353  138.0636  162.9453 C.ar    1  UNL1        0.0813
     28 N         139.4930  137.6015  161.6254 N.ar    1  UNL1       -0.2438
     29 C         138.3124  138.2967  161.0148 C.ar    1  UNL1        0.0988
     30 C         137.6741  139.4540  161.7242 C.ar    1  UNL1        0.0207
     31 C         138.2164  139.9161  163.0442 C.ar    1  UNL1        0.0031
     32 C         139.3971  139.2209  163.6547 C.ar    1  UNL1        0.0174
     33 C         139.9395  139.6830  164.9747 C.ar    1  UNL1       -0.0024
@<TRIPOS>BOND
     1    18    19    1
     2    19    20   am
     3    20    21    2
     4    20    11    1
     5    11    12   ar
     6    12    13   ar
     7    13    14   ar
     8    14     1    1
     9     1     2   ar
    10     2     3   ar
    11     3     4    1
    12     3     5   ar
    13     5     6   ar
    14     6     7   ar
    15     7     8   ar
    16     8    23    1
    17    23    24    1
    18    24    25   ar
    19    25    26   ar
    20    26    27   ar
    21    27    28   ar
    22    28    29   ar
    23    29    30   ar
    24    30    31   ar
    25    31    32   ar
    26    32    33   ar
    27     8     9   ar
    28     9    10   ar
    29    14    15   ar
    30    15    16   ar
    31    16    17    1
    32    16    11   ar
    33    10     1   ar
    34     9     5   ar
    35    33    24   ar
    36    32    27   ar
    37    19    22    1
