@<TRIPOS>MOLECULE
*****
 26 29 0 0 0
SMALL
GASTEIGER

@<TRIPOS>ATOM
      1 C         143.6411  142.8008  159.6178 C.ar    1  UNL1       -0.0207
      2 C         142.2089  143.1531  159.8908 C.ar    1  UNL1       -0.0027
      3 C         141.6871  143.1356  161.2969 C.ar    1  UNL1        0.0188
      4 C         142.5975  142.7657  162.4302 C.ar    1  UNL1        0.0812
      5 N         142.0757  142.7482  163.8364 N.ar    1  UNL1       -0.2454
      6 C         142.9861  142.3784  164.9697 C.ar    1  UNL1        0.0812
      7 C         144.4184  142.0261  164.6967 C.ar    1  UNL1        0.0191
      8 C         144.9402  142.0436  163.2906 C.ar    1  UNL1        0.0030
      9 C         144.0298  142.4134  162.1573 C.ar    1  UNL1        0.0174
     10 C         144.5516  142.4310  160.7511 C.ar    1  UNL1       -0.0027
     11 C         142.4643  142.3608  166.3759 C.ar    1  UNL1        0.0177
     12 C         140.9855  142.3650  166.6272 C.ar    1  UNL1        0.0022
     13 C         140.4637  142.3475  168.0334 C.ar    1  UNL1        0.0103
     14 C         141.4207  142.3258  169.1883 C.ar    1  UNL1        0.0684
     15 C         142.8994  142.3216  168.9370 C.ar    1  UNL1        0.0103
     16 C         143.4213  142.3391  167.5308 C.ar    1  UNL1        0.0022
     17 C         140.8989  142.3082  170.5945 C.1     1  UNL1        0.1004
     18 N         140.3771  142.2907  172.0007 N.1     1  UNL1       -0.1908
     19 C         144.1630  142.8183  158.2116 C.3     1  UNL1        0.0437
     20 C         144.8851  141.6228  157.6647 C.3     1  UNL1        0.0768
     21 C         147.7018  143.2488  157.9322 C.3     1  UNL1        0.0173
     22 C         147.2044  142.5430  156.7058 C.3     1  UNL1        0.0576
     23 C         147.9143  142.4606  155.3870 C.3     1  UNL1        0.0174
     24 C         147.0583  141.6622  154.4488 C.3     1  UNL1        0.0187
     25 C         145.8193  141.2512  155.1879 C.3     1  UNL1        0.0721
     26 N         145.9097  141.7956  156.5828 N.3     1  UNL1       -0.2737
@<TRIPOS>BOND
     1    22    21    1
     2    22    23    1
     3    23    24    1
     4    24    25    1
     5    25    26    1
     6    26    20    1
     7    20    19    1
     8    19     1    1
     9     1     2   ar
    10     2     3   ar
    11     3     4   ar
    12     4     5   ar
    13     5     6   ar
    14     6    11    1
    15    11    12   ar
    16    12    13   ar
    17    13    14   ar
    18    14    17    1
    19    17    18    3
    20    14    15   ar
    21    15    16   ar
    22     6     7   ar
    23     7     8   ar
    24     8     9   ar
    25     9    10   ar
    26    26    22    1
    27    10     1   ar
    28     9     4   ar
    29    16    11   ar
@<TRIPOS>MOLECULE
*****
 26 29 0 0 0
SMALL
GASTEIGER

@<TRIPOS>ATOM
      1 C         142.1757  139.9142  167.2768 C.ar    1  UNL1       -0.0207
      2 C         140.8621  139.6107  166.6195 C.ar    1  UNL1       -0.0027
      3 C         140.4706  140.3256  165.3603 C.ar    1  UNL1        0.0188
      4 C         141.3928  141.3442  164.7585 C.ar    1  UNL1        0.0812
      5 N         141.0013  142.0592  163.4993 N.ar    1  UNL1       -0.2454
      6 C         141.9235  143.0777  162.8975 C.ar    1  UNL1        0.0812
      7 C         143.2372  143.3812  163.5549 C.ar    1  UNL1        0.0191
      8 C         143.6286  142.6662  164.8141 C.ar    1  UNL1        0.0030
      9 C         142.7065  141.6477  165.4159 C.ar    1  UNL1        0.0174
     10 C         143.0979  140.9327  166.6750 C.ar    1  UNL1       -0.0027
     11 C         141.5320  143.7927  161.6383 C.ar    1  UNL1        0.0177
     12 C         142.1352  143.3860  160.3264 C.ar    1  UNL1        0.0022
     13 C         141.7437  144.1010  159.0673 C.ar    1  UNL1        0.0103
     14 C         140.7492  145.2226  159.1199 C.ar    1  UNL1        0.0684
     15 C         140.1461  145.6293  160.4317 C.ar    1  UNL1        0.0103
     16 C         140.5375  144.9143  161.6910 C.ar    1  UNL1        0.0022
     17 C         140.3577  145.9376  157.8608 C.1     1  UNL1        0.1004
     18 N         139.9662  146.6526  156.6015 N.1     1  UNL1       -0.1908
     19 C         142.5672  139.1992  168.5361 C.3     1  UNL1        0.0437
     20 C         142.1702  139.7581  169.8702 C.3     1  UNL1        0.0768
     21 C         143.8664  142.5458  169.9034 C.3     1  UNL1        0.0173
     22 C         142.3735  142.4212  169.9784 C.3     1  UNL1        0.0576
     23 C         141.3981  143.5561  170.0819 C.3     1  UNL1        0.0174
     24 C         140.0156  142.9761  170.1306 C.3     1  UNL1        0.0187
     25 C         140.1366  141.4827  170.0572 C.3     1  UNL1        0.0721
     26 N         141.5938  141.1398  169.9632 N.3     1  UNL1       -0.2737
@<TRIPOS>BOND
     1    22    21    1
     2    22    23    1
     3    23    24    1
     4    24    25    1
     5    25    26    1
     6    26    20    1
     7    20    19    1
     8    19     1    1
     9     1     2   ar
    10     2     3   ar
    11     3     4   ar
    12     4     5   ar
    13     5     6   ar
    14     6    11    1
    15    11    12   ar
    16    12    13   ar
    17    13    14   ar
    18    14    17    1
    19    17    18    3
    20    14    15   ar
    21    15    16   ar
    22     6     7   ar
    23     7     8   ar
    24     8     9   ar
    25     9    10   ar
    26    26    22    1
    27    10     1   ar
    28     9     4   ar
    29    16    11   ar
@<TRIPOS>MOLECULE
*****
 26 29 0 0 0
SMALL
GASTEIGER

@<TRIPOS>ATOM
      1 C         141.6303  137.9512  158.1498 C.ar    1  UNL1       -0.0207
      2 C         140.2183  138.4125  158.3581 C.ar    1  UNL1       -0.0027
      3 C         139.7344  138.7471  159.7378 C.ar    1  UNL1        0.0188
      4 C         140.6625  138.6204  160.9094 C.ar    1  UNL1        0.0812
      5 N         140.1785  138.9550  162.2892 N.ar    1  UNL1       -0.2454
      6 C         141.1067  138.8283  163.4608 C.ar    1  UNL1        0.0812
      7 C         142.5187  138.3670  163.2525 C.ar    1  UNL1        0.0191
      8 C         143.0026  138.0324  161.8727 C.ar    1  UNL1        0.0030
      9 C         142.0745  138.1591  160.7012 C.ar    1  UNL1        0.0174
     10 C         142.5584  137.8245  159.3214 C.ar    1  UNL1       -0.0027
     11 C         140.6228  139.1629  164.8406 C.ar    1  UNL1        0.0177
     12 C         141.5915  139.6483  165.8780 C.ar    1  UNL1        0.0022
     13 C         141.1076  139.9829  167.2577 C.ar    1  UNL1        0.0103
     14 C         139.6550  139.8321  167.6002 C.ar    1  UNL1        0.0684
     15 C         138.6863  139.3468  166.5629 C.ar    1  UNL1        0.0103
     16 C         139.1702  139.0121  165.1831 C.ar    1  UNL1        0.0022
     17 C         139.1711  140.1667  168.9800 C.1     1  UNL1        0.1004
     18 N         138.6872  140.5013  170.3599 N.1     1  UNL1       -0.1908
     19 C         142.1143  137.6165  156.7700 C.3     1  UNL1        0.0437
     20 C         143.0656  136.4751  156.5652 C.3     1  UNL1        0.0768
     21 C         144.1260  133.6180  157.7322 C.3     1  UNL1        0.0173
     22 C         143.0293  133.8071  156.7265 C.3     1  UNL1        0.0576
     23 C         142.2275  132.7163  156.0806 C.3     1  UNL1        0.0174
     24 C         141.2445  133.3553  155.1449 C.3     1  UNL1        0.0187
     25 C         141.4388  134.8412  155.2126 C.3     1  UNL1        0.0721
     26 N         142.5419  135.1204  156.1900 N.3     1  UNL1       -0.2737
@<TRIPOS>BOND
     1    22    21    1
     2    22    23    1
     3    23    24    1
     4    24    25    1
     5    25    26    1
     6    26    20    1
     7    20    19    1
     8    19     1    1
     9     1     2   ar
    10     2     3   ar
    11     3     4   ar
    12     4     5   ar
    13     5     6   ar
    14     6    11    1
    15    11    12   ar
    16    12    13   ar
    17    13    14   ar
    18    14    17    1
    19    17    18    3
    20    14    15   ar
    21    15    16   ar
    22     6     7   ar
    23     7     8   ar
    24     8     9   ar
    25     9    10   ar
    26    26    22    1
    27    10     1   ar
    28     9     4   ar
    29    16    11   ar
@<TRIPOS>MOLECULE
*****
 26 29 0 0 0
SMALL
GASTEIGER

@<TRIPOS>ATOM
      1 C         140.0413  138.8622  159.5427 C.ar    1  UNL1       -0.0207
      2 C         140.8643  140.0864  159.8145 C.ar    1  UNL1       -0.0027
      3 C         140.9919  140.6086  161.2148 C.ar    1  UNL1        0.0188
      4 C         140.2965  139.9066  162.3433 C.ar    1  UNL1        0.0812
      5 N         140.4241  140.4289  163.7437 N.ar    1  UNL1       -0.2454
      6 C         139.7287  139.7269  164.8723 C.ar    1  UNL1        0.0812
      7 C         138.9056  138.5026  164.6004 C.ar    1  UNL1        0.0191
      8 C         138.7781  137.9804  163.2001 C.ar    1  UNL1        0.0030
      9 C         139.4735  138.6824  162.0715 C.ar    1  UNL1        0.0174
     10 C         139.3459  138.1602  160.6712 C.ar    1  UNL1       -0.0027
     11 C         139.8563  140.2491  166.2726 C.ar    1  UNL1        0.0177
     12 C         140.7227  141.4412  166.5525 C.ar    1  UNL1        0.0022
     13 C         140.8503  141.9634  167.9528 C.ar    1  UNL1        0.0103
     14 C         140.1115  141.2936  169.0733 C.ar    1  UNL1        0.0684
     15 C         139.2450  140.1016  168.7935 C.ar    1  UNL1        0.0103
     16 C         139.1174  139.5793  167.3931 C.ar    1  UNL1        0.0022
     17 C         140.2390  141.8158  170.4736 C.1     1  UNL1        0.1004
     18 N         140.3666  142.3380  171.8740 N.1     1  UNL1       -0.1908
     19 C         139.9137  138.3399  158.1423 C.3     1  UNL1        0.0437
     20 C         141.1156  138.2954  157.2460 C.3     1  UNL1        0.0768
     21 C         139.8092  136.6131  154.7736 C.3     1  UNL1        0.0173
     22 C         141.0074  136.2080  155.5798 C.3     1  UNL1        0.0576
     23 C         141.8156  134.9584  155.3912 C.3     1  UNL1        0.0174
     24 C         142.9156  134.9594  156.4111 C.3     1  UNL1        0.0187
     25 C         142.7872  136.2096  157.2301 C.3     1  UNL1        0.0721
     26 N         141.6079  136.9812  156.7162 N.3     1  UNL1       -0.2737
@<TRIPOS>BOND
     1    22    21    1
     2    22    23    1
     3    23    24    1
     4    24    25    1
     5    25    26    1
     6    26    20    1
     7    20    19    1
     8    19     1    1
     9     1     2   ar
    10     2     3   ar
    11     3     4   ar
    12     4     5   ar
    13     5     6   ar
    14     6    11    1
    15    11    12   ar
    16    12    13   ar
    17    13    14   ar
    18    14    17    1
    19    17    18    3
    20    14    15   ar
    21    15    16   ar
    22     6     7   ar
    23     7     8   ar
    24     8     9   ar
    25     9    10   ar
    26    26    22    1
    27    10     1   ar
    28     9     4   ar
    29    16    11   ar
@<TRIPOS>MOLECULE
*****
 26 29 0 0 0
SMALL
GASTEIGER

@<TRIPOS>ATOM
      1 C         141.3716  138.2048  159.0898 C.ar    1  UNL1       -0.0207
      2 C         140.0030  138.6177  159.5440 C.ar    1  UNL1       -0.0027
      3 C         139.7584  138.9432  160.9876 C.ar    1  UNL1        0.0188
      4 C         140.8823  138.8556  161.9771 C.ar    1  UNL1        0.0812
      5 N         140.6376  139.1811  163.4208 N.ar    1  UNL1       -0.2454
      6 C         141.7615  139.0935  164.4103 C.ar    1  UNL1        0.0812
      7 C         143.1302  138.6806  163.9561 C.ar    1  UNL1        0.0191
      8 C         143.3749  138.3551  162.5124 C.ar    1  UNL1        0.0030
      9 C         142.2509  138.4427  161.5229 C.ar    1  UNL1        0.0174
     10 C         142.4956  138.1173  160.0793 C.ar    1  UNL1       -0.0027
     11 C         141.5169  139.4190  165.8540 C.ar    1  UNL1        0.0177
     12 C         140.1466  139.8254  166.3094 C.ar    1  UNL1        0.0022
     13 C         139.9020  140.1508  167.7531 C.ar    1  UNL1        0.0103
     14 C         141.0275  140.0698  168.7414 C.ar    1  UNL1        0.0684
     15 C         142.3976  139.6634  168.2860 C.ar    1  UNL1        0.0103
     16 C         142.6424  139.3380  166.8422 C.ar    1  UNL1        0.0022
     17 C         140.7828  140.3952  170.1850 C.1     1  UNL1        0.1004
     18 N         140.5381  140.7207  171.6287 N.1     1  UNL1       -0.1908
     19 C         141.6164  137.8793  157.6461 C.3     1  UNL1        0.0437
     20 C         142.8177  137.0721  157.2524 C.3     1  UNL1        0.0768
     21 C         140.8744  135.9923  154.8635 C.3     1  UNL1        0.0173
     22 C         141.7612  135.1467  155.7286 C.3     1  UNL1        0.0576
     23 C         141.9105  133.6564  155.6476 C.3     1  UNL1        0.0174
     24 C         142.8960  133.2315  156.6957 C.3     1  UNL1        0.0187
     25 C         143.3558  134.4594  157.4244 C.3     1  UNL1        0.0721
     26 N         142.6545  135.6430  156.8267 N.3     1  UNL1       -0.2737
@<TRIPOS>BOND
     1    22    21    1
     2    22    23    1
     3    23    24    1
     4    24    25    1
     5    25    26    1
     6    26    20    1
     7    20    19    1
     8    19     1    1
     9     1     2   ar
    10     2     3   ar
    11     3     4   ar
    12     4     5   ar
    13     5     6   ar
    14     6    11    1
    15    11    12   ar
    16    12    13   ar
    17    13    14   ar
    18    14    17    1
    19    17    18    3
    20    14    15   ar
    21    15    16   ar
    22     6     7   ar
    23     7     8   ar
    24     8     9   ar
    25     9    10   ar
    26    26    22    1
    27    10     1   ar
    28     9     4   ar
    29    16    11   ar
@<TRIPOS>MOLECULE
*****
 26 29 0 0 0
SMALL
GASTEIGER

@<TRIPOS>ATOM
      1 C         139.2805  139.8673  167.9452 C.ar    1  UNL1       -0.0207
      2 C         138.2383  139.0929  167.1941 C.ar    1  UNL1       -0.0027
      3 C         138.4680  138.7233  165.7587 C.ar    1  UNL1        0.0188
      4 C         139.7400  139.1279  165.0743 C.ar    1  UNL1        0.0812
      5 N         139.9697  138.7582  163.6388 N.ar    1  UNL1       -0.2454
      6 C         141.2416  139.1629  162.9544 C.ar    1  UNL1        0.0812
      7 C         142.2839  139.9373  163.7056 C.ar    1  UNL1        0.0191
      8 C         142.0541  140.3070  165.1410 C.ar    1  UNL1        0.0030
      9 C         140.7822  139.9023  165.8254 C.ar    1  UNL1        0.0174
     10 C         140.5525  140.2719  167.2608 C.ar    1  UNL1       -0.0027
     11 C         141.4713  138.7933  161.5190 C.ar    1  UNL1        0.0177
     12 C         140.4635  139.1751  160.4756 C.ar    1  UNL1        0.0022
     13 C         140.6933  138.8055  159.0402 C.ar    1  UNL1        0.0103
     14 C         141.9308  138.0540  158.6480 C.ar    1  UNL1        0.0684
     15 C         142.9386  137.6721  159.6913 C.ar    1  UNL1        0.0103
     16 C         142.7089  138.0417  161.1268 C.ar    1  UNL1        0.0022
     17 C         142.1605  137.6843  157.2126 C.1     1  UNL1        0.1004
     18 N         142.3903  137.3146  155.7771 N.1     1  UNL1       -0.1908
     19 C         139.0508  140.2370  169.3807 C.3     1  UNL1        0.0437
     20 C         140.1754  140.1423  170.3688 C.3     1  UNL1        0.0768
     21 C         140.1449  143.3998  170.1767 C.3     1  UNL1        0.0173
     22 C         141.3632  142.5257  170.1361 C.3     1  UNL1        0.0576
     23 C         142.7812  142.9953  170.0001 C.3     1  UNL1        0.0174
     24 C         143.6717  141.7882  170.0043 C.3     1  UNL1        0.0187
     25 C         142.8039  140.5725  170.1430 C.3     1  UNL1        0.0721
     26 N         141.3772  141.0284  170.2244 N.3     1  UNL1       -0.2737
@<TRIPOS>BOND
     1    22    21    1
     2    22    23    1
     3    23    24    1
     4    24    25    1
     5    25    26    1
     6    26    20    1
     7    20    19    1
     8    19     1    1
     9     1     2   ar
    10     2     3   ar
    11     3     4   ar
    12     4     5   ar
    13     5     6   ar
    14     6    11    1
    15    11    12   ar
    16    12    13   ar
    17    13    14   ar
    18    14    17    1
    19    17    18    3
    20    14    15   ar
    21    15    16   ar
    22     6     7   ar
    23     7     8   ar
    24     8     9   ar
    25     9    10   ar
    26    26    22    1
    27    10     1   ar
    28     9     4   ar
    29    16    11   ar
@<TRIPOS>MOLECULE
*****
 26 29 0 0 0
SMALL
GASTEIGER

@<TRIPOS>ATOM
      1 C         138.5965  139.3114  165.7616 C.ar    1  UNL1       -0.0207
      2 C         138.9259  137.9877  165.1377 C.ar    1  UNL1       -0.0027
      3 C         138.9915  137.8578  163.6448 C.ar    1  UNL1        0.0188
      4 C         138.7277  139.0516  162.7758 C.ar    1  UNL1        0.0812
      5 N         138.7933  138.9216  161.2828 N.ar    1  UNL1       -0.2454
      6 C         138.5295  140.1154  160.4137 C.ar    1  UNL1        0.0812
      7 C         138.2002  141.4392  161.0377 C.ar    1  UNL1        0.0191
      8 C         138.1346  141.5691  162.5305 C.ar    1  UNL1        0.0030
      9 C         138.3983  140.3753  163.3996 C.ar    1  UNL1        0.0174
     10 C         138.3327  140.5052  164.8925 C.ar    1  UNL1       -0.0027
     11 C         138.5951  139.9855  158.9209 C.ar    1  UNL1        0.0177
     12 C         137.7559  140.8757  158.0529 C.ar    1  UNL1        0.0022
     13 C         137.8215  140.7457  156.5600 C.ar    1  UNL1        0.0103
     14 C         138.7263  139.7256  155.9350 C.ar    1  UNL1        0.0684
     15 C         139.5656  138.8355  156.8028 C.ar    1  UNL1        0.0103
     16 C         139.5000  138.9653  158.2958 C.ar    1  UNL1        0.0022
     17 C         138.7919  139.5957  154.4421 C.1     1  UNL1        0.1004
     18 N         138.8575  139.4658  152.9491 N.1     1  UNL1       -0.1908
     19 C         138.5309  139.4414  167.2545 C.3     1  UNL1        0.0437
     20 C         139.7735  139.7503  168.0358 C.3     1  UNL1        0.0768
     21 C         140.9442  142.5121  166.7509 C.3     1  UNL1        0.0173
     22 C         140.4443  142.3351  168.1540 C.3     1  UNL1        0.0576
     23 C         140.3948  143.3965  169.2128 C.3     1  UNL1        0.0174
     24 C         139.8260  142.7829  170.4579 C.3     1  UNL1        0.0187
     25 C         139.5240  141.3423  170.1685 C.3     1  UNL1        0.0721
     26 N         139.9062  141.0657  168.7446 N.3     1  UNL1       -0.2737
@<TRIPOS>BOND
     1    22    21    1
     2    22    23    1
     3    23    24    1
     4    24    25    1
     5    25    26    1
     6    26    20    1
     7    20    19    1
     8    19     1    1
     9     1     2   ar
    10     2     3   ar
    11     3     4   ar
    12     4     5   ar
    13     5     6   ar
    14     6    11    1
    15    11    12   ar
    16    12    13   ar
    17    13    14   ar
    18    14    17    1
    19    17    18    3
    20    14    15   ar
    21    15    16   ar
    22     6     7   ar
    23     7     8   ar
    24     8     9   ar
    25     9    10   ar
    26    26    22    1
    27    10     1   ar
    28     9     4   ar
    29    16    11   ar
@<TRIPOS>MOLECULE
*****
 26 29 0 0 0
SMALL
GASTEIGER

@<TRIPOS>ATOM
      1 C         141.4280  137.9505  158.2204 C.ar    1  UNL1       -0.0207
      2 C         142.6109  137.7519  159.1210 C.ar    1  UNL1       -0.0027
      3 C         142.4783  137.9884  160.5963 C.ar    1  UNL1        0.0188
      4 C         141.1628  138.4235  161.1709 C.ar    1  UNL1        0.0812
      5 N         141.0302  138.6600  162.6462 N.ar    1  UNL1       -0.2454
      6 C         139.7147  139.0950  163.2208 C.ar    1  UNL1        0.0812
      7 C         138.5318  139.2935  162.3201 C.ar    1  UNL1        0.0191
      8 C         138.6644  139.0570  160.8448 C.ar    1  UNL1        0.0030
      9 C         139.9799  138.6220  160.2702 C.ar    1  UNL1        0.0174
     10 C         140.1125  138.3855  158.7950 C.ar    1  UNL1       -0.0027
     11 C         139.5821  139.3315  164.6961 C.ar    1  UNL1        0.0177
     12 C         138.4138  138.7619  165.4450 C.ar    1  UNL1        0.0022
     13 C         138.2812  138.9984  166.9202 C.ar    1  UNL1        0.0103
     14 C         139.3168  139.8045  167.6467 C.ar    1  UNL1        0.0684
     15 C         140.4851  140.3741  166.8978 C.ar    1  UNL1        0.0103
     16 C         140.6177  140.1376  165.4225 C.ar    1  UNL1        0.0022
     17 C         139.1842  140.0410  169.1219 C.1     1  UNL1        0.1004
     18 N         139.0516  140.2776  170.5973 N.1     1  UNL1       -0.1908
     19 C         141.5606  137.7139  156.7450 C.3     1  UNL1        0.0437
     20 C         142.6162  136.7830  156.2266 C.3     1  UNL1        0.0768
     21 C         143.6236  134.0997  157.7869 C.3     1  UNL1        0.0173
     22 C         142.7238  134.1366  156.5874 C.3     1  UNL1        0.0576
     23 C         142.1290  132.9466  155.8945 C.3     1  UNL1        0.0174
     24 C         141.2983  133.4445  154.7489 C.3     1  UNL1        0.0187
     25 C         141.3798  134.9423  154.7339 C.3     1  UNL1        0.0721
     26 N         142.2607  135.3699  155.8702 N.3     1  UNL1       -0.2737
@<TRIPOS>BOND
     1    22    21    1
     2    22    23    1
     3    23    24    1
     4    24    25    1
     5    25    26    1
     6    26    20    1
     7    20    19    1
     8    19     1    1
     9     1     2   ar
    10     2     3   ar
    11     3     4   ar
    12     4     5   ar
    13     5     6   ar
    14     6    11    1
    15    11    12   ar
    16    12    13   ar
    17    13    14   ar
    18    14    17    1
    19    17    18    3
    20    14    15   ar
    21    15    16   ar
    22     6     7   ar
    23     7     8   ar
    24     8     9   ar
    25     9    10   ar
    26    26    22    1
    27    10     1   ar
    28     9     4   ar
    29    16    11   ar
@<TRIPOS>MOLECULE
*****
 26 29 0 0 0
SMALL
GASTEIGER

@<TRIPOS>ATOM
      1 C         139.3921  137.7448  163.8959 C.ar    1  UNL1       -0.0207
      2 C         138.4679  137.9083  162.7258 C.ar    1  UNL1       -0.0027
      3 C         139.0279  138.1622  161.3576 C.ar    1  UNL1        0.0188
      4 C         140.5120  138.2525  161.1595 C.ar    1  UNL1        0.0812
      5 N         141.0720  138.5064  159.7913 N.ar    1  UNL1       -0.2454
      6 C         142.5561  138.5967  159.5932 C.ar    1  UNL1        0.0812
      7 C         143.4803  138.4332  160.7634 C.ar    1  UNL1        0.0191
      8 C         142.9203  138.1793  162.1316 C.ar    1  UNL1        0.0030
      9 C         141.4362  138.0890  162.3296 C.ar    1  UNL1        0.0174
     10 C         140.8762  137.8351  163.6978 C.ar    1  UNL1       -0.0027
     11 C         143.1161  138.8505  158.2250 C.ar    1  UNL1        0.0177
     12 C         142.9334  137.8320  157.1390 C.ar    1  UNL1        0.0022
     13 C         143.4934  138.0859  155.7709 C.ar    1  UNL1        0.0103
     14 C         144.2361  139.3582  155.4886 C.ar    1  UNL1        0.0684
     15 C         144.4188  140.3767  156.5745 C.ar    1  UNL1        0.0103
     16 C         143.8588  140.1229  157.9428 C.ar    1  UNL1        0.0022
     17 C         144.7961  139.6120  154.1205 C.1     1  UNL1        0.1004
     18 N         145.3561  139.8659  152.7522 N.1     1  UNL1       -0.1908
     19 C         138.8321  137.4910  165.2641 C.3     1  UNL1        0.0437
     20 C         138.2267  138.6177  166.0476 C.3     1  UNL1        0.0768
     21 C         138.0904  141.2681  164.1487 C.3     1  UNL1        0.0173
     22 C         138.9344  141.1069  165.3782 C.3     1  UNL1        0.0576
     23 C         139.8638  142.1356  165.9507 C.3     1  UNL1        0.0174
     24 C         140.5010  141.5531  167.1774 C.3     1  UNL1        0.0187
     25 C         139.9652  140.1644  167.3631 C.3     1  UNL1        0.0721
     26 N         138.9970  139.8887  166.2510 N.3     1  UNL1       -0.2737
@<TRIPOS>BOND
     1    22    21    1
     2    22    23    1
     3    23    24    1
     4    24    25    1
     5    25    26    1
     6    26    20    1
     7    20    19    1
     8    19     1    1
     9     1     2   ar
    10     2     3   ar
    11     3     4   ar
    12     4     5   ar
    13     5     6   ar
    14     6    11    1
    15    11    12   ar
    16    12    13   ar
    17    13    14   ar
    18    14    17    1
    19    17    18    3
    20    14    15   ar
    21    15    16   ar
    22     6     7   ar
    23     7     8   ar
    24     8     9   ar
    25     9    10   ar
    26    26    22    1
    27    10     1   ar
    28     9     4   ar
    29    16    11   ar
