@<TRIPOS>MOLECULE
*****
 30 32 0 0 0
SMALL
GASTEIGER

@<TRIPOS>ATOM
      1 C         139.8079  141.4777  169.9876 C.3     1  UNL1        0.1010
      2 C         138.9657  140.3502  169.4688 C.2     1  UNL1        0.2274
      3 O         138.1748  139.5044  170.4223 O.2     1  UNL1       -0.2748
      4 N         138.9143  140.0683  167.9963 N.am    1  UNL1       -0.2705
      5 C         138.0721  138.9408  167.4775 C.3     1  UNL1        0.1183
      6 C         138.0207  138.6590  166.0051 C.3     1  UNL1        0.1301
      7 N         138.8116  139.5048  165.0516 N.ar    1  UNL1       -0.2924
      8 C         139.6538  140.6323  165.5704 C.ar    1  UNL1        0.1635
      9 N         140.3201  141.2904  164.3987 N.ar    1  UNL1       -0.1316
     10 N         139.8896  140.5695  163.1557 N.ar    1  UNL1       -0.1249
     11 C         138.9573  139.4660  163.5591 C.ar    1  UNL1        0.2383
     12 C         139.7052  140.9141  167.0428 C.3     1  UNL1        0.1596
     13 C         138.2882  138.4942  162.6329 C.3     1  UNL1        0.4524
     14 F         137.6191  137.5225  161.7066 F       1  UNL1       -0.1632
     15 F         137.3659  139.5789  162.1613 F       1  UNL1       -0.1632
     16 F         139.2106  137.4095  163.1046 F       1  UNL1       -0.1632
     17 N         140.9575  140.5645  172.1311 N.3     1  UNL1       -0.3215
     18 C         141.0545  141.1849  170.7689 C.3     1  UNL1        0.0644
     19 H         139.9768  140.4111  172.3658 H       1  UNL1        0.1188
     20 H         141.3783  141.1885  172.8196 H       1  UNL1        0.1188
     21 C         142.3981  141.5123  170.1878 C.3     1  UNL1        0.0447
     22 C         142.7142  141.1360  168.7707 C.ar    1  UNL1        0.0090
     23 C         143.0187  142.2031  167.7614 C.ar    1  UNL1        0.0300
     24 C         143.3348  141.8268  166.3442 C.ar    1  UNL1        0.1672
     25 F         143.6393  142.8939  165.3350 F       1  UNL1       -0.2018
     26 C         143.3464  140.3834  165.9362 C.ar    1  UNL1        0.1696
     27 F         143.6625  140.0071  164.5191 F       1  UNL1       -0.2017
     28 C         143.0419  139.3163  166.9454 C.ar    1  UNL1        0.0612
     29 C         142.7258  139.6926  168.3627 C.ar    1  UNL1        0.1386
     30 F         142.4213  138.6255  169.3719 F       1  UNL1       -0.2044
@<TRIPOS>BOND
     1    18    17    1
     2    18     1    1
     3     1     2    1
     4     2     3    2
     5     2     4   am
     6     4     5    1
     7     5     6    1
     8     6     7    1
     9     7     8   ar
    10     8     9   ar
    11     9    10   ar
    12    10    11   ar
    13    11    13    1
    14    13    14    1
    15    13    15    1
    16    13    16    1
    17     8    12    1
    18    18    21    1
    19    21    22    1
    20    22    23   ar
    21    23    24   ar
    22    24    25    1
    23    24    26   ar
    24    26    27    1
    25    26    28   ar
    26    28    29   ar
    27    29    30    1
    28    12     4    1
    29    29    22   ar
    30    11     7   ar
    31    17    19    1
    32    17    20    1
@<TRIPOS>MOLECULE
*****
 30 32 0 0 0
SMALL
GASTEIGER

@<TRIPOS>ATOM
      1 C         142.3194  138.2637  163.7154 C.3     1  UNL1        0.1010
      2 C         142.5429  139.7233  163.9788 C.2     1  UNL1        0.2274
      3 O         142.6096  140.6904  162.8342 O.2     1  UNL1       -0.2748
      4 N         142.6998  140.2159  165.3870 N.am    1  UNL1       -0.2705
      5 C         142.9233  141.6756  165.6504 C.3     1  UNL1        0.1183
      6 C         143.0802  142.1681  167.0585 C.3     1  UNL1        0.1301
      7 N         143.0136  141.2011  168.2031 N.ar    1  UNL1       -0.2924
      8 C         142.7900  139.7414  167.9397 C.ar    1  UNL1        0.1635
      9 N         142.7705  139.0298  169.2601 N.ar    1  UNL1       -0.1316
     10 N         142.9820  140.0497  170.3395 N.ar    1  UNL1       -0.1249
     11 C         143.1322  141.3916  169.6863 C.ar    1  UNL1        0.2383
     12 C         142.6332  139.2489  166.5317 C.3     1  UNL1        0.1596
     13 C         143.3608  142.6952  170.3922 C.3     1  UNL1        0.4524
     14 F         143.5894  143.9988  171.0982 F       1  UNL1       -0.1632
     15 F         141.9135  142.7370  170.7837 F       1  UNL1       -0.1632
     16 F         144.8082  142.6533  170.0007 F       1  UNL1       -0.1632
     17 N         142.1142  137.2372  161.3376 N.3     1  UNL1       -0.3215
     18 C         141.4718  137.8320  162.5555 C.3     1  UNL1        0.0644
     19 H         143.1251  137.2017  161.4693 H       1  UNL1        0.1188
     20 H         141.8974  137.8123  160.5236 H       1  UNL1        0.1188
     21 C         139.9819  137.9952  162.6136 C.3     1  UNL1        0.0447
     22 C         139.3062  138.2507  163.9282 C.ar    1  UNL1        0.0090
     23 C         138.8550  137.0984  164.7761 C.ar    1  UNL1        0.0300
     24 C         138.1792  137.3539  166.0906 C.ar    1  UNL1        0.1672
     25 F         137.7281  136.2017  166.9384 F       1  UNL1       -0.2018
     26 C         137.9546  138.7617  166.5573 C.ar    1  UNL1        0.1696
     27 F         137.2789  139.0172  167.8718 F       1  UNL1       -0.2017
     28 C         138.4058  139.9139  165.7095 C.ar    1  UNL1        0.0612
     29 C         139.0815  139.6584  164.3949 C.ar    1  UNL1        0.1386
     30 F         139.5327  140.8106  163.5471 F       1  UNL1       -0.2044
@<TRIPOS>BOND
     1    18    17    1
     2    18     1    1
     3     1     2    1
     4     2     3    2
     5     2     4   am
     6     4     5    1
     7     5     6    1
     8     6     7    1
     9     7     8   ar
    10     8     9   ar
    11     9    10   ar
    12    10    11   ar
    13    11    13    1
    14    13    14    1
    15    13    15    1
    16    13    16    1
    17     8    12    1
    18    18    21    1
    19    21    22    1
    20    22    23   ar
    21    23    24   ar
    22    24    25    1
    23    24    26   ar
    24    26    27    1
    25    26    28   ar
    26    28    29   ar
    27    29    30    1
    28    12     4    1
    29    29    22   ar
    30    11     7   ar
    31    17    19    1
    32    17    20    1
@<TRIPOS>MOLECULE
*****
 30 32 0 0 0
SMALL
GASTEIGER

@<TRIPOS>ATOM
      1 C         138.1737  140.2742  163.8368 C.3     1  UNL1        0.1010
      2 C         139.6389  140.1109  164.1133 C.2     1  UNL1        0.2274
      3 O         140.6155  140.0588  162.9759 O.2     1  UNL1       -0.2748
      4 N         140.1276  139.9998  165.5271 N.am    1  UNL1       -0.2705
      5 C         141.5928  139.8366  165.8036 C.3     1  UNL1        0.1183
      6 C         142.0814  139.7254  167.2174 C.3     1  UNL1        0.1301
      7 N         141.1048  139.7775  168.3547 N.ar    1  UNL1       -0.2924
      8 C         139.6396  139.9408  168.0783 C.ar    1  UNL1        0.1635
      9 N         138.9189  139.9588  169.3937 N.ar    1  UNL1       -0.1316
     10 N         139.9388  139.8067  170.4831 N.ar    1  UNL1       -0.1249
     11 C         141.2897  139.6947  169.8410 C.ar    1  UNL1        0.2383
     12 C         139.1510  140.0519  166.6645 C.3     1  UNL1        0.1596
     13 C         142.5962  139.5289  170.5591 C.3     1  UNL1        0.4524
     14 F         143.9027  139.3632  171.2771 F       1  UNL1       -0.1632
     15 F         142.5603  140.9744  170.9579 F       1  UNL1       -0.1632
     16 F         142.6320  138.0833  170.1602 F       1  UNL1       -0.1632
     17 N         137.3006  139.7906  161.4381 N.3     1  UNL1       -0.3215
     18 C         137.7136  140.7689  162.4975 C.3     1  UNL1        0.0644
     19 H         137.3946  138.8406  161.7973 H       1  UNL1        0.1188
     20 H         137.8971  139.9049  160.6186 H       1  UNL1        0.1188
     21 C         137.6667  142.2418  162.2177 C.3     1  UNL1        0.0447
     22 C         138.7762  143.1315  162.6944 C.ar    1  UNL1        0.0090
     23 C         140.0115  143.3023  161.8607 C.ar    1  UNL1        0.0300
     24 C         141.1210  144.1920  162.3375 C.ar    1  UNL1        0.1672
     25 F         142.3562  144.3627  161.5037 F       1  UNL1       -0.2018
     26 C         140.9953  144.9109  163.6479 C.ar    1  UNL1        0.1696
     27 F         142.1049  145.8006  164.1247 F       1  UNL1       -0.2017
     28 C         139.7602  144.7401  164.4816 C.ar    1  UNL1        0.0612
     29 C         138.6506  143.8504  164.0049 C.ar    1  UNL1        0.1386
     30 F         137.4154  143.6796  164.8386 F       1  UNL1       -0.2044
@<TRIPOS>BOND
     1    18    17    1
     2    18     1    1
     3     1     2    1
     4     2     3    2
     5     2     4   am
     6     4     5    1
     7     5     6    1
     8     6     7    1
     9     7     8   ar
    10     8     9   ar
    11     9    10   ar
    12    10    11   ar
    13    11    13    1
    14    13    14    1
    15    13    15    1
    16    13    16    1
    17     8    12    1
    18    18    21    1
    19    21    22    1
    20    22    23   ar
    21    23    24   ar
    22    24    25    1
    23    24    26   ar
    24    26    27    1
    25    26    28   ar
    26    28    29   ar
    27    29    30    1
    28    12     4    1
    29    29    22   ar
    30    11     7   ar
    31    17    19    1
    32    17    20    1
@<TRIPOS>MOLECULE
*****
 30 32 0 0 0
SMALL
GASTEIGER

@<TRIPOS>ATOM
      1 C         138.4852  139.2716  163.8812 C.3     1  UNL1        0.1010
      2 C         139.4035  140.4479  164.0327 C.2     1  UNL1        0.2274
      3 O         139.8280  141.2284  162.8242 O.2     1  UNL1       -0.2748
      4 N         139.8974  140.8436  165.3927 N.am    1  UNL1       -0.2705
      5 C         140.8157  142.0199  165.5441 C.3     1  UNL1        0.1183
      6 C         141.3095  142.4156  166.9041 C.3     1  UNL1        0.1301
      7 N         140.8850  141.6350  168.1126 N.ar    1  UNL1       -0.2924
      8 C         139.9667  140.4588  167.9611 C.ar    1  UNL1        0.1635
      9 N         139.7210  139.8840  169.3247 N.ar    1  UNL1       -0.1316
     10 N         140.4875  140.7050  170.3189 N.ar    1  UNL1       -0.1249
     11 C         141.2069  141.7873  169.5698 C.ar    1  UNL1        0.2383
     12 C         139.4729  140.0631  166.6012 C.3     1  UNL1        0.1596
     13 C         142.0927  142.8374  170.1720 C.3     1  UNL1        0.4524
     14 F         142.9784  143.8875  170.7742 F       1  UNL1       -0.1632
     15 F         141.0228  143.8655  169.9527 F       1  UNL1       -0.1632
     16 F         143.1626  141.8091  170.3913 F       1  UNL1       -0.1632
     17 N         138.1739  137.7918  161.7686 N.3     1  UNL1       -0.3215
     18 C         138.9010  138.0983  163.0442 C.3     1  UNL1        0.0644
     19 H         137.4321  138.4774  161.6269 H       1  UNL1        0.1188
     20 H         137.7675  136.8579  161.8248 H       1  UNL1        0.1188
     21 C         140.0439  137.2315  163.4829 C.3     1  UNL1        0.0447
     22 C         141.3942  137.8376  163.7267 C.ar    1  UNL1        0.0090
     23 C         141.9417  137.9131  165.1212 C.ar    1  UNL1        0.0300
     24 C         143.2919  138.5192  165.3650 C.ar    1  UNL1        0.1672
     25 F         143.8394  138.5947  166.7594 F       1  UNL1       -0.2018
     26 C         144.0948  139.0497  164.2143 C.ar    1  UNL1        0.1696
     27 F         145.4450  139.6557  164.4581 F       1  UNL1       -0.2017
     28 C         143.5473  138.9741  162.8198 C.ar    1  UNL1        0.0612
     29 C         142.1970  138.3681  162.5760 C.ar    1  UNL1        0.1386
     30 F         141.6496  138.2925  161.1815 F       1  UNL1       -0.2044
@<TRIPOS>BOND
     1    18    17    1
     2    18     1    1
     3     1     2    1
     4     2     3    2
     5     2     4   am
     6     4     5    1
     7     5     6    1
     8     6     7    1
     9     7     8   ar
    10     8     9   ar
    11     9    10   ar
    12    10    11   ar
    13    11    13    1
    14    13    14    1
    15    13    15    1
    16    13    16    1
    17     8    12    1
    18    18    21    1
    19    21    22    1
    20    22    23   ar
    21    23    24   ar
    22    24    25    1
    23    24    26   ar
    24    26    27    1
    25    26    28   ar
    26    28    29   ar
    27    29    30    1
    28    12     4    1
    29    29    22   ar
    30    11     7   ar
    31    17    19    1
    32    17    20    1
@<TRIPOS>MOLECULE
*****
 30 32 0 0 0
SMALL
GASTEIGER

@<TRIPOS>ATOM
      1 C         144.5589  142.7850  164.2708 C.3     1  UNL1        0.1010
      2 C         144.4205  141.2971  164.4005 C.2     1  UNL1        0.2274
      3 O         145.6205  140.4142  164.2258 O.2     1  UNL1       -0.2748
      4 N         143.0821  140.6920  164.7049 N.am    1  UNL1       -0.2705
      5 C         142.9437  139.2041  164.8346 C.3     1  UNL1        0.1183
      6 C         141.6054  138.5991  165.1390 C.3     1  UNL1        0.1301
      7 N         140.4054  139.4820  165.3137 N.ar    1  UNL1       -0.2924
      8 C         140.5438  140.9699  165.1840 C.ar    1  UNL1        0.1635
      9 N         139.1928  141.5822  165.4070 N.ar    1  UNL1       -0.1316
     10 N         138.2194  140.4727  165.6745 N.ar    1  UNL1       -0.1249
     11 C         138.9688  139.1747  165.6168 C.ar    1  UNL1        0.2383
     12 C         141.8821  141.5749  164.8796 C.3     1  UNL1        0.1596
     13 C         138.3843  137.8091  165.8256 C.3     1  UNL1        0.4524
     14 F         137.7999  136.4435  166.0343 F       1  UNL1       -0.1632
     15 F         138.8255  137.4099  164.4487 F       1  UNL1       -0.1632
     16 F         137.9432  138.2085  167.2025 F       1  UNL1       -0.1632
     17 N         145.1394  142.8193  161.7386 N.3     1  UNL1       -0.3215
     18 C         144.4527  143.4335  162.9224 C.3     1  UNL1        0.0644
     19 H         145.6279  141.9728  162.0304 H       1  UNL1        0.1188
     20 H         145.8107  143.4833  161.3527 H       1  UNL1        0.1188
     21 C         143.6597  144.6960  162.7577 C.3     1  UNL1        0.0447
     22 C         142.1608  144.6434  162.7407 C.ar    1  UNL1        0.0090
     23 C         141.3855  144.9437  163.9893 C.ar    1  UNL1        0.0300
     24 C         139.8866  144.8910  163.9723 C.ar    1  UNL1        0.1672
     25 F         139.1114  145.1914  165.2208 F       1  UNL1       -0.2018
     26 C         139.1628  144.5380  162.7068 C.ar    1  UNL1        0.1696
     27 F         137.6639  144.4854  162.6898 F       1  UNL1       -0.2017
     28 C         139.9379  144.2377  161.4583 C.ar    1  UNL1        0.0612
     29 C         141.4370  144.2904  161.4752 C.ar    1  UNL1        0.1386
     30 F         142.2121  143.9900  160.2266 F       1  UNL1       -0.2044
@<TRIPOS>BOND
     1    18    17    1
     2    18     1    1
     3     1     2    1
     4     2     3    2
     5     2     4   am
     6     4     5    1
     7     5     6    1
     8     6     7    1
     9     7     8   ar
    10     8     9   ar
    11     9    10   ar
    12    10    11   ar
    13    11    13    1
    14    13    14    1
    15    13    15    1
    16    13    16    1
    17     8    12    1
    18    18    21    1
    19    21    22    1
    20    22    23   ar
    21    23    24   ar
    22    24    25    1
    23    24    26   ar
    24    26    27    1
    25    26    28   ar
    26    28    29   ar
    27    29    30    1
    28    12     4    1
    29    29    22   ar
    30    11     7   ar
    31    17    19    1
    32    17    20    1
@<TRIPOS>MOLECULE
*****
 30 32 0 0 0
SMALL
GASTEIGER

@<TRIPOS>ATOM
      1 C         142.5525  138.2307  164.2912 C.3     1  UNL1        0.1010
      2 C         141.2485  138.4516  164.9989 C.2     1  UNL1        0.2274
      3 O         140.0334  137.6712  164.5933 O.2     1  UNL1       -0.2748
      4 N         141.1596  139.4529  166.1122 N.am    1  UNL1       -0.2705
      5 C         139.8557  139.6738  166.8199 C.3     1  UNL1        0.1183
      6 C         139.7668  140.6752  167.9332 C.3     1  UNL1        0.1301
      7 N         140.9819  141.4556  168.3388 N.ar    1  UNL1       -0.2924
      8 C         142.2859  141.2347  167.6311 C.ar    1  UNL1        0.1635
      9 N         143.3072  142.1447  168.2464 N.ar    1  UNL1       -0.1316
     10 N         142.6344  142.9281  169.3344 N.ar    1  UNL1       -0.1249
     11 C         141.1973  142.5022  169.3915 C.ar    1  UNL1        0.2383
     12 C         142.3747  140.2333  166.5178 C.3     1  UNL1        0.1596
     13 C         140.1581  143.0302  170.3356 C.3     1  UNL1        0.4524
     14 F         139.1189  143.5581  171.2796 F       1  UNL1       -0.1632
     15 F         140.1216  141.7046  171.0366 F       1  UNL1       -0.1632
     16 F         140.1947  144.3558  169.6345 F       1  UNL1       -0.1632
     17 N         141.8178  137.3058  161.9771 N.3     1  UNL1       -0.3215
     18 C         142.6111  138.2829  162.7932 C.3     1  UNL1        0.0644
     19 H         141.3010  136.6841  162.5989 H       1  UNL1        0.1188
     20 H         142.4503  136.7562  161.3955 H       1  UNL1        0.1188
     21 C         143.4631  139.3121  162.1114 C.3     1  UNL1        0.0447
     22 C         143.6578  140.6601  162.7398 C.ar    1  UNL1        0.0090
     23 C         142.7751  141.8066  162.3443 C.ar    1  UNL1        0.0300
     24 C         142.9698  143.1546  162.9727 C.ar    1  UNL1        0.1672
     25 F         142.0871  144.3010  162.5772 F       1  UNL1       -0.2018
     26 C         144.0474  143.3562  163.9966 C.ar    1  UNL1        0.1696
     27 F         144.2422  144.7042  164.6250 F       1  UNL1       -0.2017
     28 C         144.9301  142.2098  164.3921 C.ar    1  UNL1        0.0612
     29 C         144.7354  140.8617  163.7637 C.ar    1  UNL1        0.1386
     30 F         145.6181  139.7153  164.1592 F       1  UNL1       -0.2044
@<TRIPOS>BOND
     1    18    17    1
     2    18     1    1
     3     1     2    1
     4     2     3    2
     5     2     4   am
     6     4     5    1
     7     5     6    1
     8     6     7    1
     9     7     8   ar
    10     8     9   ar
    11     9    10   ar
    12    10    11   ar
    13    11    13    1
    14    13    14    1
    15    13    15    1
    16    13    16    1
    17     8    12    1
    18    18    21    1
    19    21    22    1
    20    22    23   ar
    21    23    24   ar
    22    24    25    1
    23    24    26   ar
    24    26    27    1
    25    26    28   ar
    26    28    29   ar
    27    29    30    1
    28    12     4    1
    29    29    22   ar
    30    11     7   ar
    31    17    19    1
    32    17    20    1
@<TRIPOS>MOLECULE
*****
 30 32 0 0 0
SMALL
GASTEIGER

@<TRIPOS>ATOM
      1 C         144.7555  142.7946  164.4530 C.3     1  UNL1        0.1010
      2 C         143.2998  143.0994  164.6474 C.2     1  UNL1        0.2274
      3 O         142.6045  144.0574  163.7260 O.2     1  UNL1       -0.2748
      4 N         142.5392  142.4463  165.7633 N.am    1  UNL1       -0.2705
      5 C         141.0835  142.7511  165.9577 C.3     1  UNL1        0.1183
      6 C         140.3230  142.0980  167.0735 C.3     1  UNL1        0.1301
      7 N         141.0183  141.1400  167.9948 N.ar    1  UNL1       -0.2924
      8 C         142.4740  140.8352  167.8004 C.ar    1  UNL1        0.1635
      9 N         142.8880  139.8564  168.8590 N.ar    1  UNL1       -0.1316
     10 N         141.6881  139.5562  169.7076 N.ar    1  UNL1       -0.1249
     11 C         140.5325  140.3496  169.1736 C.ar    1  UNL1        0.2383
     12 C         143.2345  141.4883  166.6846 C.3     1  UNL1        0.1596
     13 C         139.1363  140.3521  169.7219 C.3     1  UNL1        0.4524
     14 F         137.7402  140.3545  170.2702 F       1  UNL1       -0.1632
     15 F         138.6704  139.5562  168.5390 F       1  UNL1       -0.1632
     16 F         139.6023  141.1480  170.9049 F       1  UNL1       -0.1632
     17 N         145.7150  142.1784  162.1185 N.3     1  UNL1       -0.3215
     18 C         145.1779  141.7579  163.4545 C.3     1  UNL1        0.0644
     19 H         145.7228  143.1967  162.0604 H       1  UNL1        0.1188
     20 H         145.1223  141.8002  161.3795 H       1  UNL1        0.1188
     21 C         145.0633  140.3009  163.7919 C.3     1  UNL1        0.0447
     22 C         143.7811  139.5686  163.5279 C.ar    1  UNL1        0.0090
     23 C         143.0444  139.7866  162.2396 C.ar    1  UNL1        0.0300
     24 C         141.7622  139.0543  161.9756 C.ar    1  UNL1        0.1672
     25 F         141.0256  139.2724  160.6873 F       1  UNL1       -0.2018
     26 C         141.2167  138.1039  162.9999 C.ar    1  UNL1        0.1696
     27 F         139.9346  137.3716  162.7359 F       1  UNL1       -0.2017
     28 C         141.9534  137.8859  164.2882 C.ar    1  UNL1        0.0612
     29 C         143.2356  138.6182  164.5522 C.ar    1  UNL1        0.1386
     30 F         143.9723  138.4001  165.8405 F       1  UNL1       -0.2044
@<TRIPOS>BOND
     1    18    17    1
     2    18     1    1
     3     1     2    1
     4     2     3    2
     5     2     4   am
     6     4     5    1
     7     5     6    1
     8     6     7    1
     9     7     8   ar
    10     8     9   ar
    11     9    10   ar
    12    10    11   ar
    13    11    13    1
    14    13    14    1
    15    13    15    1
    16    13    16    1
    17     8    12    1
    18    18    21    1
    19    21    22    1
    20    22    23   ar
    21    23    24   ar
    22    24    25    1
    23    24    26   ar
    24    26    27    1
    25    26    28   ar
    26    28    29   ar
    27    29    30    1
    28    12     4    1
    29    29    22   ar
    30    11     7   ar
    31    17    19    1
    32    17    20    1
@<TRIPOS>MOLECULE
*****
 30 32 0 0 0
SMALL
GASTEIGER

@<TRIPOS>ATOM
      1 C         139.8149  144.4294  164.3793 C.3     1  UNL1        0.1010
      2 C         140.9043  143.4037  164.4840 C.2     1  UNL1        0.2274
      3 O         141.7295  143.0604  163.2793 O.2     1  UNL1       -0.2748
      4 N         141.1686  142.7213  165.7934 N.am    1  UNL1       -0.2705
      5 C         142.2581  141.6956  165.8981 C.3     1  UNL1        0.1183
      6 C         142.5223  141.0132  167.2074 C.3     1  UNL1        0.1301
      7 N         141.6971  141.3565  168.4121 N.ar    1  UNL1       -0.2924
      8 C         140.6077  142.3822  168.3074 C.ar    1  UNL1        0.1635
      9 N         139.9631  142.5130  169.6555 N.ar    1  UNL1       -0.1316
     10 N         140.6541  141.5681  170.5934 N.ar    1  UNL1       -0.1249
     11 C         141.7259  140.8533  169.8250 C.ar    1  UNL1        0.2383
     12 C         140.3434  143.0646  166.9980 C.3     1  UNL1        0.1596
     13 C         142.6619  139.8173  170.3731 C.3     1  UNL1        0.4524
     14 F         143.5981  138.7814  170.9211 F       1  UNL1       -0.1632
     15 F         143.7706  140.8276  170.3889 F       1  UNL1       -0.1632
     16 F         141.5532  138.8072  170.3572 F       1  UNL1       -0.1632
     17 N         138.0339  144.7993  162.5241 N.3     1  UNL1       -0.3215
     18 C         138.5032  144.0686  163.7472 C.3     1  UNL1        0.0644
     19 H         138.7247  145.5024  162.2621 H       1  UNL1        0.1188
     20 H         137.1429  145.2549  162.7213 H       1  UNL1        0.1188
     21 C         137.6610  142.9771  164.3381 C.3     1  UNL1        0.0447
     22 C         137.9575  141.5427  164.0150 C.ar    1  UNL1        0.0090
     23 C         138.3132  140.5846  165.1131 C.ar    1  UNL1        0.0300
     24 C         138.6098  139.1502  164.7900 C.ar    1  UNL1        0.1672
     25 F         138.9655  138.1922  165.8880 F       1  UNL1       -0.2018
     26 C         138.5507  138.6738  163.3689 C.ar    1  UNL1        0.1696
     27 F         138.8472  137.2393  163.0458 F       1  UNL1       -0.2017
     28 C         138.1950  139.6318  162.2709 C.ar    1  UNL1        0.0612
     29 C         137.8984  141.0663  162.5939 C.ar    1  UNL1        0.1386
     30 F         137.5428  142.0243  161.4959 F       1  UNL1       -0.2044
@<TRIPOS>BOND
     1    18    17    1
     2    18     1    1
     3     1     2    1
     4     2     3    2
     5     2     4   am
     6     4     5    1
     7     5     6    1
     8     6     7    1
     9     7     8   ar
    10     8     9   ar
    11     9    10   ar
    12    10    11   ar
    13    11    13    1
    14    13    14    1
    15    13    15    1
    16    13    16    1
    17     8    12    1
    18    18    21    1
    19    21    22    1
    20    22    23   ar
    21    23    24   ar
    22    24    25    1
    23    24    26   ar
    24    26    27    1
    25    26    28   ar
    26    28    29   ar
    27    29    30    1
    28    12     4    1
    29    29    22   ar
    30    11     7   ar
    31    17    19    1
    32    17    20    1
@<TRIPOS>MOLECULE
*****
 30 32 0 0 0
SMALL
GASTEIGER

@<TRIPOS>ATOM
      1 C         139.6465  144.9438  162.8945 C.3     1  UNL1        0.1010
      2 C         138.9053  143.7040  162.4904 C.2     1  UNL1        0.2274
      3 O         138.2636  143.6213  161.1371 O.2     1  UNL1       -0.2748
      4 N         138.8056  142.5468  163.4397 N.am    1  UNL1       -0.2705
      5 C         138.0644  141.3070  163.0356 C.3     1  UNL1        0.1183
      6 C         137.9648  140.1499  163.9849 C.3     1  UNL1        0.1301
      7 N         138.6064  140.2326  165.3382 N.ar    1  UNL1       -0.2924
      8 C         139.3477  141.4724  165.7423 C.ar    1  UNL1        0.1635
      9 N         139.8744  141.2655  167.1314 N.ar    1  UNL1       -0.1316
     10 N         139.4586  139.8978  167.5859 N.ar    1  UNL1       -0.1249
     11 C         138.6750  139.2594  166.4777 C.ar    1  UNL1        0.2383
     12 C         139.4473  142.6295  164.7930 C.3     1  UNL1        0.1596
     13 C         138.0667  137.8885  166.5042 C.3     1  UNL1        0.4524
     14 F         137.4585  136.5177  166.5306 F       1  UNL1       -0.1632
     15 F         139.0829  137.4185  165.5060 F       1  UNL1       -0.1632
     16 F         137.0506  138.3587  167.5024 F       1  UNL1       -0.1632
     17 N         141.9351  145.9324  163.6262 N.3     1  UNL1       -0.3215
     18 C         141.1392  145.0032  162.7583 C.3     1  UNL1        0.0644
     19 H         141.3051  146.4429  164.2450 H       1  UNL1        0.1188
     20 H         142.4446  146.5930  163.0394 H       1  UNL1        0.1188
     21 C         141.8359  144.1335  161.7543 C.3     1  UNL1        0.0447
     22 C         142.6133  142.9350  162.2115 C.ar    1  UNL1        0.0090
     23 C         143.8946  143.1169  162.9701 C.ar    1  UNL1        0.0300
     24 C         144.6720  141.9184  163.4274 C.ar    1  UNL1        0.1672
     25 F         145.9532  142.1003  164.1859 F       1  UNL1       -0.2018
     26 C         144.1683  140.5380  163.1261 C.ar    1  UNL1        0.1696
     27 F         144.9458  139.3395  163.5833 F       1  UNL1       -0.2017
     28 C         142.8871  140.3561  162.3675 C.ar    1  UNL1        0.0612
     29 C         142.1096  141.5546  161.9102 C.ar    1  UNL1        0.1386
     30 F         140.8284  141.3727  161.1517 F       1  UNL1       -0.2044
@<TRIPOS>BOND
     1    18    17    1
     2    18     1    1
     3     1     2    1
     4     2     3    2
     5     2     4   am
     6     4     5    1
     7     5     6    1
     8     6     7    1
     9     7     8   ar
    10     8     9   ar
    11     9    10   ar
    12    10    11   ar
    13    11    13    1
    14    13    14    1
    15    13    15    1
    16    13    16    1
    17     8    12    1
    18    18    21    1
    19    21    22    1
    20    22    23   ar
    21    23    24   ar
    22    24    25    1
    23    24    26   ar
    24    26    27    1
    25    26    28   ar
    26    28    29   ar
    27    29    30    1
    28    12     4    1
    29    29    22   ar
    30    11     7   ar
    31    17    19    1
    32    17    20    1
