@<TRIPOS>MOLECULE
*****
 31 34 0 0 0
SMALL
GASTEIGER

@<TRIPOS>ATOM
      1 C         138.7673  139.4684  165.9445 C.ar    1  UNL1        0.0895
      2 C         137.8918  138.7820  166.9505 C.ar    1  UNL1        0.1062
      3 N         138.0138  139.1214  168.4065 N.ar    1  UNL1       -0.2271
      4 C         139.0114  140.1473  168.8564 C.ar    1  UNL1        0.1558
      5 C         139.8869  140.8337  167.8504 C.ar    1  UNL1        0.0529
      6 C         139.7649  140.4942  166.3944 C.ar    1  UNL1        0.0793
      7 C         138.6453  139.1290  164.4885 C.2     1  UNL1        0.2676
      8 O         137.8961  140.0436  163.5654 O.2     1  UNL1       -0.2683
      9 C         140.6898  137.5357  164.3110 C.3     1  UNL1        0.1388
     10 N         139.2726  137.8750  163.9556 N.am    1  UNL1       -0.1997
     11 N         139.1334  140.4867  170.3124 N.am    1  UNL1       -0.1603
     12 C         140.4498  140.9425  170.8685 C.2     1  UNL1        0.2464
     13 O         140.4936  142.0474  171.8821 O.2     1  UNL1       -0.2730
     14 C         141.7223  140.2933  170.4112 C.3     1  UNL1        0.0786
     15 C         143.1766  140.3920  170.0572 C.3     1  UNL1        0.0096
     16 C         142.4722  139.0703  169.9730 C.3     1  UNL1        0.0096
     17 N         140.6406  141.1807  165.3883 N.pl3   1  UNL1       -0.2091
     18 C         140.1784  142.4481  164.7326 C.ar    1  UNL1        0.1044
     19 C         139.3922  143.4555  165.5182 C.ar    1  UNL1        0.0196
     20 C         138.9300  144.7230  164.8624 C.ar    1  UNL1        0.0016
     21 C         139.2540  144.9830  163.4211 C.ar    1  UNL1        0.0062
     22 C         140.0402  143.9757  162.6356 C.ar    1  UNL1        0.0727
     23 C         140.5024  142.7082  163.2913 C.ar    1  UNL1        0.1567
     24 C         140.3642  144.2357  161.1943 C.ar    1  UNL1        0.1862
     25 N         141.6137  144.8825  160.6743 N.ar    1  UNL1       -0.2033
     26 C         141.5174  144.9412  159.1785 C.ar    1  UNL1        0.1972
     27 N         140.2082  144.3306  158.7741 N.ar    1  UNL1       -0.2281
     28 C         139.7008  144.1822  157.3703 C.3     1  UNL1        0.1556
     29 N         139.4956  143.8947  160.0199 N.ar    1  UNL1       -0.1483
     30 O         141.2885  141.7009  162.5057 O.3     1  UNL1       -0.4700
     31 C         140.5756  140.6762  161.6741 C.3     1  UNL1        0.2525
@<TRIPOS>BOND
     1     9    10    1
     2    10     7   am
     3     7     8    2
     4     7     1    1
     5     1     2   ar
     6     2     3   ar
     7     3     4   ar
     8     4    11    1
     9    11    12   am
    10    12    13    2
    11    12    14    1
    12    14    15    1
    13    15    16    1
    14     4     5   ar
    15     5     6   ar
    16     6    17    1
    17    17    18    1
    18    18    19   ar
    19    19    20   ar
    20    20    21   ar
    21    21    22   ar
    22    22    24    1
    23    24    25   ar
    24    25    26   ar
    25    26    27   ar
    26    27    28    1
    27    27    29   ar
    28    22    23   ar
    29    23    30    1
    30    30    31    1
    31     6     1   ar
    32    23    18   ar
    33    16    14    1
    34    29    24   ar
@<TRIPOS>MOLECULE
*****
 31 34 0 0 0
SMALL
GASTEIGER

@<TRIPOS>ATOM
      1 C         138.2012  140.0371  162.3508 C.ar    1  UNL1        0.0895
      2 C         137.8078  141.2035  161.4937 C.ar    1  UNL1        0.1062
      3 N         137.5904  142.5513  162.1151 N.ar    1  UNL1       -0.2271
      4 C         137.7665  142.7327  163.5936 C.ar    1  UNL1        0.1558
      5 C         138.1599  141.5663  164.4508 C.ar    1  UNL1        0.0529
      6 C         138.3773  140.2185  163.8294 C.ar    1  UNL1        0.0793
      7 C         138.4186  138.6893  161.7294 C.2     1  UNL1        0.2676
      8 O         137.2804  137.7176  161.6285 O.2     1  UNL1       -0.2683
      9 C         140.7414  139.3821  160.7943 C.3     1  UNL1        0.1388
     10 N         139.7742  138.3132  161.2090 N.am    1  UNL1       -0.1997
     11 N         137.5491  144.0806  164.2150 N.am    1  UNL1       -0.1603
     12 C         138.6546  144.7376  164.9871 C.2     1  UNL1        0.2464
     13 O         138.3418  145.5123  166.2329 O.2     1  UNL1       -0.2730
     14 C         140.0730  144.6199  164.5134 C.3     1  UNL1        0.0786
     15 C         141.1998  145.1091  163.6527 C.3     1  UNL1        0.0096
     16 C         141.4027  143.9271  164.5536 C.3     1  UNL1        0.0096
     17 N         138.7708  139.0521  164.6865 N.pl3   1  UNL1       -0.2091
     18 C         140.1820  138.9254  165.1788 C.ar    1  UNL1        0.1044
     19 C         141.1843  138.1381  164.3879 C.ar    1  UNL1        0.0196
     20 C         142.5956  138.0114  164.8802 C.ar    1  UNL1        0.0016
     21 C         143.0045  138.6719  166.1633 C.ar    1  UNL1        0.0062
     22 C         142.0022  139.4592  166.9542 C.ar    1  UNL1        0.0727
     23 C         140.5909  139.5859  166.4620 C.ar    1  UNL1        0.1567
     24 C         142.4110  140.1198  168.2373 C.ar    1  UNL1        0.1862
     25 N         142.8156  139.4185  169.5001 N.ar    1  UNL1       -0.2033
     26 C         143.1418  140.4629  170.5262 C.ar    1  UNL1        0.1972
     27 N         142.9387  141.8096  169.8975 N.ar    1  UNL1       -0.2281
     28 C         143.1502  143.1357  170.5661 C.3     1  UNL1        0.1556
     29 N         142.4871  141.5975  168.4830 N.ar    1  UNL1       -0.1483
     30 O         139.5886  140.3732  167.2529 O.3     1  UNL1       -0.4700
     31 C         138.7795  139.6991  168.3209 C.3     1  UNL1        0.2525
@<TRIPOS>BOND
     1     9    10    1
     2    10     7   am
     3     7     8    2
     4     7     1    1
     5     1     2   ar
     6     2     3   ar
     7     3     4   ar
     8     4    11    1
     9    11    12   am
    10    12    13    2
    11    12    14    1
    12    14    15    1
    13    15    16    1
    14     4     5   ar
    15     5     6   ar
    16     6    17    1
    17    17    18    1
    18    18    19   ar
    19    19    20   ar
    20    20    21   ar
    21    21    22   ar
    22    22    24    1
    23    24    25   ar
    24    25    26   ar
    25    26    27   ar
    26    27    28    1
    27    27    29   ar
    28    22    23   ar
    29    23    30    1
    30    30    31    1
    31     6     1   ar
    32    23    18   ar
    33    16    14    1
    34    29    24   ar
@<TRIPOS>MOLECULE
*****
 31 34 0 0 0
SMALL
GASTEIGER

@<TRIPOS>ATOM
      1 C         140.7260  140.1179  168.2903 C.ar    1  UNL1        0.0895
      2 C         141.9737  139.5165  168.8661 C.ar    1  UNL1        0.1062
      3 N         143.0666  139.0412  167.9552 N.ar    1  UNL1       -0.2271
      4 C         142.9118  139.1673  166.4686 C.ar    1  UNL1        0.1558
      5 C         141.6641  139.7686  165.8928 C.ar    1  UNL1        0.0529
      6 C         140.5712  140.2440  166.8037 C.ar    1  UNL1        0.0793
      7 C         139.6331  140.5932  169.2012 C.2     1  UNL1        0.2676
      8 O         138.3903  139.7714  169.3740 O.2     1  UNL1       -0.2683
      9 C         140.6030  142.9990  169.3486 C.3     1  UNL1        0.1388
     10 N         139.7830  141.8904  169.9392 N.am    1  UNL1       -0.1997
     11 N         144.0047  138.6919  165.5578 N.am    1  UNL1       -0.1603
     12 C         144.2052  139.3451  164.2224 C.2     1  UNL1        0.2464
     13 O         143.8351  138.6132  162.9664 O.2     1  UNL1       -0.2730
     14 C         144.7759  140.7300  164.1430 C.3     1  UNL1        0.0786
     15 C         145.8542  141.6663  163.6842 C.3     1  UNL1        0.0096
     16 C         144.6860  142.1924  164.4643 C.3     1  UNL1        0.0096
     17 N         139.3235  140.8454  166.2278 N.pl3   1  UNL1       -0.2091
     18 C         139.4129  142.0498  165.3383 C.ar    1  UNL1        0.1044
     19 C         139.5067  143.4208  165.9394 C.ar    1  UNL1        0.0196
     20 C         139.5962  144.6253  165.0497 C.ar    1  UNL1        0.0016
     21 C         139.5917  144.4586  163.5591 C.ar    1  UNL1        0.0062
     22 C         139.4979  143.0875  162.9579 C.ar    1  UNL1        0.0727
     23 C         139.4085  141.8831  163.8475 C.ar    1  UNL1        0.1567
     24 C         139.4934  142.9208  161.4673 C.ar    1  UNL1        0.1862
     25 N         138.2775  142.8451  160.5922 N.ar    1  UNL1       -0.2033
     26 C         138.7367  142.6781  159.1740 C.ar    1  UNL1        0.1972
     27 N         140.2365  142.6506  159.1727 N.ar    1  UNL1       -0.2281
     28 C         141.1145  142.4996  157.9658 C.3     1  UNL1        0.1556
     29 N         140.7042  142.8006  160.5900 N.ar    1  UNL1       -0.1483
     30 O         139.3146  140.5120  163.2464 O.3     1  UNL1       -0.4700
     31 C         137.9713  139.9075  162.9636 C.3     1  UNL1        0.2525
@<TRIPOS>BOND
     1     9    10    1
     2    10     7   am
     3     7     8    2
     4     7     1    1
     5     1     2   ar
     6     2     3   ar
     7     3     4   ar
     8     4    11    1
     9    11    12   am
    10    12    13    2
    11    12    14    1
    12    14    15    1
    13    15    16    1
    14     4     5   ar
    15     5     6   ar
    16     6    17    1
    17    17    18    1
    18    18    19   ar
    19    19    20   ar
    20    20    21   ar
    21    21    22   ar
    22    22    24    1
    23    24    25   ar
    24    25    26   ar
    25    26    27   ar
    26    27    28    1
    27    27    29   ar
    28    22    23   ar
    29    23    30    1
    30    30    31    1
    31     6     1   ar
    32    23    18   ar
    33    16    14    1
    34    29    24   ar
@<TRIPOS>MOLECULE
*****
 31 34 0 0 0
SMALL
GASTEIGER

@<TRIPOS>ATOM
      1 C         142.5909  141.0619  167.3983 C.ar    1  UNL1        0.0895
      2 C         142.8222  139.5988  167.6341 C.ar    1  UNL1        0.1062
      3 N         142.7592  138.6350  166.4864 N.ar    1  UNL1       -0.2271
      4 C         142.4650  139.1344  165.1029 C.ar    1  UNL1        0.1558
      5 C         142.2337  140.5976  164.8672 C.ar    1  UNL1        0.0529
      6 C         142.2966  141.5614  166.0149 C.ar    1  UNL1        0.0793
      7 C         142.6539  142.0257  168.5460 C.2     1  UNL1        0.2676
      8 O         143.9105  142.8029  168.8047 O.2     1  UNL1       -0.2683
      9 C         140.4668  143.2964  169.1392 C.3     1  UNL1        0.1388
     10 N         141.4603  142.2122  169.4351 N.am    1  UNL1       -0.1997
     11 N         142.4020  138.1707  163.9552 N.am    1  UNL1       -0.1603
     12 C         141.0769  137.8040  163.3557 C.2     1  UNL1        0.2464
     13 O         141.0098  137.2642  161.9577 O.2     1  UNL1       -0.2730
     14 C         139.8188  137.9769  164.1540 C.3     1  UNL1        0.0786
     15 C         138.5906  138.7709  164.4872 C.3     1  UNL1        0.0096
     16 C         138.8681  137.4826  165.2036 C.3     1  UNL1        0.0096
     17 N         142.0653  143.0246  165.7791 N.pl3   1  UNL1       -0.2091
     18 C         140.8789  143.4772  164.9807 C.ar    1  UNL1        0.1044
     19 C         139.5575  143.6925  165.6573 C.ar    1  UNL1        0.0196
     20 C         138.3711  144.1452  164.8588 C.ar    1  UNL1        0.0016
     21 C         138.5060  144.3826  163.3839 C.ar    1  UNL1        0.0062
     22 C         139.8274  144.1673  162.7074 C.ar    1  UNL1        0.0727
     23 C         141.0138  143.7147  163.5057 C.ar    1  UNL1        0.1567
     24 C         139.9623  144.4047  161.2325 C.ar    1  UNL1        0.1862
     25 N         140.7072  145.5348  160.5858 N.ar    1  UNL1       -0.2033
     26 C         140.5813  145.3823  159.0989 C.ar    1  UNL1        0.1972
     27 N         139.7586  144.1579  158.8266 N.ar    1  UNL1       -0.2281
     28 C         139.3841  143.6303  157.4733 C.3     1  UNL1        0.1556
     29 N         139.3760  143.5538  160.1452 N.ar    1  UNL1       -0.1483
     30 O         142.3351  143.4994  162.8292 O.3     1  UNL1       -0.4700
     31 C         143.3756  144.5795  162.8549 C.3     1  UNL1        0.2525
@<TRIPOS>BOND
     1     9    10    1
     2    10     7   am
     3     7     8    2
     4     7     1    1
     5     1     2   ar
     6     2     3   ar
     7     3     4   ar
     8     4    11    1
     9    11    12   am
    10    12    13    2
    11    12    14    1
    12    14    15    1
    13    15    16    1
    14     4     5   ar
    15     5     6   ar
    16     6    17    1
    17    17    18    1
    18    18    19   ar
    19    19    20   ar
    20    20    21   ar
    21    21    22   ar
    22    22    24    1
    23    24    25   ar
    24    25    26   ar
    25    26    27   ar
    26    27    28    1
    27    27    29   ar
    28    22    23   ar
    29    23    30    1
    30    30    31    1
    31     6     1   ar
    32    23    18   ar
    33    16    14    1
    34    29    24   ar
@<TRIPOS>MOLECULE
*****
 31 34 0 0 0
SMALL
GASTEIGER

@<TRIPOS>ATOM
      1 C         139.5410  138.7366  165.4401 C.ar    1  UNL1        0.0895
      2 C         138.3896  138.5234  166.3776 C.ar    1  UNL1        0.1062
      3 N         138.3911  139.1762  167.7280 N.ar    1  UNL1       -0.2271
      4 C         139.5440  140.0423  168.1411 C.ar    1  UNL1        0.1558
      5 C         140.6954  140.2555  167.2036 C.ar    1  UNL1        0.0529
      6 C         140.6939  139.6027  165.8532 C.ar    1  UNL1        0.0793
      7 C         139.5394  138.0838  164.0896 C.2     1  UNL1        0.2676
      8 O         140.6130  137.0996  163.7311 O.2     1  UNL1       -0.2683
      9 C         138.7638  138.3831  161.6282 C.3     1  UNL1        0.1388
     10 N         138.4642  138.4152  163.0976 N.am    1  UNL1       -0.1997
     11 N         139.5456  140.6951  169.4916 N.am    1  UNL1       -0.1603
     12 C         140.3885  141.9116  169.7356 C.2     1  UNL1        0.2464
     13 O         139.7380  143.2162  170.0891 O.2     1  UNL1       -0.2730
     14 C         141.8819  141.8236  169.6260 C.3     1  UNL1        0.0786
     15 C         143.1718  141.1407  169.9721 C.3     1  UNL1        0.0096
     16 C         143.1786  142.3541  169.0903 C.3     1  UNL1        0.0096
     17 N         141.8453  139.8160  164.9157 N.pl3   1  UNL1       -0.2091
     18 C         142.3440  141.2043  164.6441 C.ar    1  UNL1        0.1044
     19 C         143.5675  141.7127  165.3474 C.ar    1  UNL1        0.0196
     20 C         144.0662  143.1011  165.0757 C.ar    1  UNL1        0.0016
     21 C         143.3415  143.9810  164.1008 C.ar    1  UNL1        0.0062
     22 C         142.1181  143.4726  163.3975 C.ar    1  UNL1        0.0727
     23 C         141.6193  142.0843  163.6691 C.ar    1  UNL1        0.1567
     24 C         141.3933  144.3525  162.4226 C.ar    1  UNL1        0.1862
     25 N         140.4491  145.4645  162.7716 N.ar    1  UNL1       -0.2033
     26 C         139.9578  146.0742  161.4922 C.ar    1  UNL1        0.1972
     27 N         140.5984  145.3388  160.3524 N.ar    1  UNL1       -0.2281
     28 C         140.3885  145.6185  158.8937 C.3     1  UNL1        0.1556
     29 N         141.4856  144.2748  160.9274 N.ar    1  UNL1       -0.1483
     30 O         140.3958  141.5759  162.9658 O.3     1  UNL1       -0.4700
     31 C         139.0326  141.9375  163.4763 C.3     1  UNL1        0.2525
@<TRIPOS>BOND
     1     9    10    1
     2    10     7   am
     3     7     8    2
     4     7     1    1
     5     1     2   ar
     6     2     3   ar
     7     3     4   ar
     8     4    11    1
     9    11    12   am
    10    12    13    2
    11    12    14    1
    12    14    15    1
    13    15    16    1
    14     4     5   ar
    15     5     6   ar
    16     6    17    1
    17    17    18    1
    18    18    19   ar
    19    19    20   ar
    20    20    21   ar
    21    21    22   ar
    22    22    24    1
    23    24    25   ar
    24    25    26   ar
    25    26    27   ar
    26    27    28    1
    27    27    29   ar
    28    22    23   ar
    29    23    30    1
    30    30    31    1
    31     6     1   ar
    32    23    18   ar
    33    16    14    1
    34    29    24   ar
@<TRIPOS>MOLECULE
*****
 31 34 0 0 0
SMALL
GASTEIGER

@<TRIPOS>ATOM
      1 C         143.0187  139.1395  165.4407 C.ar    1  UNL1        0.0895
      2 C         143.7264  138.3010  166.4634 C.ar    1  UNL1        0.1062
      3 N         143.3824  138.4415  167.9167 N.ar    1  UNL1       -0.2271
      4 C         142.3308  139.4206  168.3472 C.ar    1  UNL1        0.1558
      5 C         141.6231  140.2591  167.3245 C.ar    1  UNL1        0.0529
      6 C         141.9671  140.1186  165.8712 C.ar    1  UNL1        0.0793
      7 C         143.3627  138.9989  163.9874 C.2     1  UNL1        0.2676
      8 O         142.5762  138.0636  163.1176 O.2     1  UNL1       -0.2683
      9 C         144.3703  140.3718  162.0253 C.3     1  UNL1        0.1388
     10 N         144.4931  139.7937  163.4040 N.am    1  UNL1       -0.1997
     11 N         141.9868  139.5612  169.8004 N.am    1  UNL1       -0.1603
     12 C         140.8382  140.4305  170.2186 C.2     1  UNL1        0.2464
     13 O         139.5931  139.8098  170.7794 O.2     1  UNL1       -0.2730
     14 C         140.9346  141.9206  170.0761 C.3     1  UNL1        0.0786
     15 C         141.7659  143.1663  169.9905 C.3     1  UNL1        0.0096
     16 C         140.2705  143.2558  169.9148 C.3     1  UNL1        0.0096
     17 N         141.2593  140.9572  164.8485 N.pl3   1  UNL1       -0.2091
     18 C         141.9273  142.1769  164.2863 C.ar    1  UNL1        0.1044
     19 C         143.0376  142.8410  165.0454 C.ar    1  UNL1        0.0196
     20 C         143.7056  144.0608  164.4831 C.ar    1  UNL1        0.0016
     21 C         143.2633  144.6164  163.1619 C.ar    1  UNL1        0.0062
     22 C         142.1530  143.9523  162.4029 C.ar    1  UNL1        0.0727
     23 C         141.4850  142.7325  162.9650 C.ar    1  UNL1        0.1567
     24 C         141.7107  144.5078  161.0817 C.ar    1  UNL1        0.1862
     25 N         140.4548  145.2882  160.8293 N.ar    1  UNL1       -0.2033
     26 C         140.4145  145.6433  159.3725 C.ar    1  UNL1        0.1972
     27 N         141.6456  145.0823  158.7245 N.ar    1  UNL1       -0.2281
     28 C         142.0113  145.2020  157.2747 C.3     1  UNL1        0.1556
     29 N         142.4466  144.3806  159.7808 N.ar    1  UNL1       -0.1483
     30 O         140.3747  142.0684  162.2060 O.3     1  UNL1       -0.4700
     31 C         138.9473  142.4193  162.5048 C.3     1  UNL1        0.2525
@<TRIPOS>BOND
     1     9    10    1
     2    10     7   am
     3     7     8    2
     4     7     1    1
     5     1     2   ar
     6     2     3   ar
     7     3     4   ar
     8     4    11    1
     9    11    12   am
    10    12    13    2
    11    12    14    1
    12    14    15    1
    13    15    16    1
    14     4     5   ar
    15     5     6   ar
    16     6    17    1
    17    17    18    1
    18    18    19   ar
    19    19    20   ar
    20    20    21   ar
    21    21    22   ar
    22    22    24    1
    23    24    25   ar
    24    25    26   ar
    25    26    27   ar
    26    27    28    1
    27    27    29   ar
    28    22    23   ar
    29    23    30    1
    30    30    31    1
    31     6     1   ar
    32    23    18   ar
    33    16    14    1
    34    29    24   ar
@<TRIPOS>MOLECULE
*****
 31 34 0 0 0
SMALL
GASTEIGER

@<TRIPOS>ATOM
      1 C         140.2458  139.7301  160.9823 C.ar    1  UNL1        0.0895
      2 C         138.8736  139.9363  160.4127 C.ar    1  UNL1        0.1062
      3 N         138.1008  141.1772  160.7487 N.ar    1  UNL1       -0.2271
      4 C         138.7001  142.2118  161.6543 C.ar    1  UNL1        0.1558
      5 C         140.0723  142.0056  162.2239 C.ar    1  UNL1        0.0529
      6 C         140.8451  140.7647  161.8879 C.ar    1  UNL1        0.0793
      7 C         141.0187  138.4892  160.6463 C.2     1  UNL1        0.2676
      8 O         141.1723  137.4016  161.6679 O.2     1  UNL1       -0.2683
      9 C         142.0773  139.5488  158.5234 C.3     1  UNL1        0.1388
     10 N         141.6379  138.3358  159.2887 N.am    1  UNL1       -0.1997
     11 N         137.9273  143.4527  161.9903 N.am    1  UNL1       -0.1603
     12 C         138.6039  144.5892  162.6978 C.2     1  UNL1        0.2464
     13 O         139.0135  145.8121  161.9319 O.2     1  UNL1       -0.2730
     14 C         138.8710  144.5027  164.1713 C.3     1  UNL1        0.0786
     15 C         138.5703  144.9412  165.5739 C.3     1  UNL1        0.0096
     16 C         139.6342  143.9145  165.3209 C.3     1  UNL1        0.0096
     17 N         142.2174  140.5585  162.4576 N.pl3   1  UNL1       -0.2091
     18 C         142.5974  141.2114  163.7535 C.ar    1  UNL1        0.1044
     19 C         143.3494  142.5092  163.7473 C.ar    1  UNL1        0.0196
     20 C         143.7293  143.1620  165.0433 C.ar    1  UNL1        0.0016
     21 C         143.3573  142.5170  166.3454 C.ar    1  UNL1        0.0062
     22 C         142.6052  141.2192  166.3516 C.ar    1  UNL1        0.0727
     23 C         142.2253  140.5664  165.0557 C.ar    1  UNL1        0.1567
     24 C         142.2331  140.5742  167.6537 C.ar    1  UNL1        0.1862
     25 N         142.9994  139.4895  168.3510 N.ar    1  UNL1       -0.2033
     26 C         142.2693  139.1455  169.6154 C.ar    1  UNL1        0.1972
     27 N         141.0518  140.0177  169.6995 N.ar    1  UNL1       -0.2281
     28 C         140.0351  140.0085  170.8023 C.3     1  UNL1        0.1556
     29 N         141.0295  140.9006  168.4871 N.ar    1  UNL1       -0.1483
     30 O         141.4732  139.2685  165.0619 O.3     1  UNL1       -0.4700
     31 C         139.9742  139.2706  165.1138 C.3     1  UNL1        0.2525
@<TRIPOS>BOND
     1     9    10    1
     2    10     7   am
     3     7     8    2
     4     7     1    1
     5     1     2   ar
     6     2     3   ar
     7     3     4   ar
     8     4    11    1
     9    11    12   am
    10    12    13    2
    11    12    14    1
    12    14    15    1
    13    15    16    1
    14     4     5   ar
    15     5     6   ar
    16     6    17    1
    17    17    18    1
    18    18    19   ar
    19    19    20   ar
    20    20    21   ar
    21    21    22   ar
    22    22    24    1
    23    24    25   ar
    24    25    26   ar
    25    26    27   ar
    26    27    28    1
    27    27    29   ar
    28    22    23   ar
    29    23    30    1
    30    30    31    1
    31     6     1   ar
    32    23    18   ar
    33    16    14    1
    34    29    24   ar
@<TRIPOS>MOLECULE
*****
 31 34 0 0 0
SMALL
GASTEIGER

@<TRIPOS>ATOM
      1 C         141.3166  140.0603  161.1889 C.ar    1  UNL1        0.0895
      2 C         141.2237  141.1752  160.1897 C.ar    1  UNL1        0.1062
      3 N         140.2420  142.2898  160.3987 N.ar    1  UNL1       -0.2271
      4 C         139.3531  142.2896  161.6069 C.ar    1  UNL1        0.1558
      5 C         139.4459  141.1748  162.6061 C.ar    1  UNL1        0.0529
      6 C         140.4277  140.0601  162.3971 C.ar    1  UNL1        0.0793
      7 C         142.2984  138.9457  160.9799 C.2     1  UNL1        0.2676
      8 O         141.8076  137.5458  160.7574 O.2     1  UNL1       -0.2683
      9 C         144.3586  140.0901  162.0733 C.3     1  UNL1        0.1388
     10 N         143.7709  139.2309  160.9933 N.am    1  UNL1       -0.1997
     11 N         138.3713  143.4043  161.8160 N.am    1  UNL1       -0.1603
     12 C         138.7624  144.6067  162.6230 C.2     1  UNL1        0.2464
     13 O         139.0118  145.9191  161.9407 O.2     1  UNL1       -0.2730
     14 C         138.9040  144.4967  164.1122 C.3     1  UNL1        0.0786
     15 C         138.5038  144.9318  165.4908 C.3     1  UNL1        0.0096
     16 C         139.5496  143.8712  165.3130 C.3     1  UNL1        0.0096
     17 N         140.5205  138.9452  163.3964 N.pl3   1  UNL1       -0.2091
     18 C         139.9919  139.1383  164.7867 C.ar    1  UNL1        0.1044
     19 C         138.5648  138.7989  165.1004 C.ar    1  UNL1        0.0196
     20 C         138.0361  138.9919  166.4908 C.ar    1  UNL1        0.0016
     21 C         138.9345  139.5244  167.5676 C.ar    1  UNL1        0.0062
     22 C         140.3615  139.8638  167.2539 C.ar    1  UNL1        0.0727
     23 C         140.8902  139.6707  165.8636 C.ar    1  UNL1        0.1567
     24 C         141.2599  140.3962  168.3307 C.ar    1  UNL1        0.1862
     25 N         142.1770  139.5834  169.1957 N.ar    1  UNL1       -0.2033
     26 C         142.8828  140.5198  170.1311 C.ar    1  UNL1        0.1972
     27 N         142.4018  141.9114  169.8442 N.ar    1  UNL1       -0.2281
     28 C         142.8460  143.1601  170.5467 C.3     1  UNL1        0.1556
     29 N         141.3988  141.8350  168.7315 N.ar    1  UNL1       -0.1483
     30 O         142.3173  140.0101  165.5499 O.3     1  UNL1       -0.4700
     31 C         142.6808  141.4011  165.1222 C.3     1  UNL1        0.2525
@<TRIPOS>BOND
     1     9    10    1
     2    10     7   am
     3     7     8    2
     4     7     1    1
     5     1     2   ar
     6     2     3   ar
     7     3     4   ar
     8     4    11    1
     9    11    12   am
    10    12    13    2
    11    12    14    1
    12    14    15    1
    13    15    16    1
    14     4     5   ar
    15     5     6   ar
    16     6    17    1
    17    17    18    1
    18    18    19   ar
    19    19    20   ar
    20    20    21   ar
    21    21    22   ar
    22    22    24    1
    23    24    25   ar
    24    25    26   ar
    25    26    27   ar
    26    27    28    1
    27    27    29   ar
    28    22    23   ar
    29    23    30    1
    30    30    31    1
    31     6     1   ar
    32    23    18   ar
    33    16    14    1
    34    29    24   ar
@<TRIPOS>MOLECULE
*****
 31 34 0 0 0
SMALL
GASTEIGER

@<TRIPOS>ATOM
      1 C         142.8269  140.3967  165.8941 C.ar    1  UNL1        0.0895
      2 C         142.9560  139.3161  166.9265 C.ar    1  UNL1        0.1062
      3 N         142.7709  139.6408  168.3792 N.ar    1  UNL1       -0.2271
      4 C         142.4569  141.0460  168.7996 C.ar    1  UNL1        0.1558
      5 C         142.3278  142.1265  167.7672 C.ar    1  UNL1        0.0529
      6 C         142.5129  141.8018  166.3145 C.ar    1  UNL1        0.0793
      7 C         143.0120  140.0720  164.4414 C.2     1  UNL1        0.2676
      8 O         141.8311  139.6778  163.6047 O.2     1  UNL1       -0.2683
      9 C         144.5239  140.3094  162.3420 C.3     1  UNL1        0.1388
     10 N         144.3778  140.1416  163.8254 N.am    1  UNL1       -0.1997
     11 N         142.2718  141.3706  170.2523 N.am    1  UNL1       -0.1603
     12 C         140.8938  141.4037  170.8438 C.2     1  UNL1        0.2464
     13 O         140.6507  142.1194  172.1395 O.2     1  UNL1       -0.2730
     14 C         139.7588  140.7211  170.1397 C.3     1  UNL1        0.0786
     15 C         139.1817  140.1053  168.8996 C.3     1  UNL1        0.0096
     16 C         138.3701  140.1546  170.1601 C.3     1  UNL1        0.0096
     17 N         142.3838  142.8825  165.2822 N.pl3   1  UNL1       -0.2091
     18 C         141.0490  143.1719  164.6622 C.ar    1  UNL1        0.1044
     19 C         139.8798  143.5289  165.5315 C.ar    1  UNL1        0.0196
     20 C         138.5449  143.8183  164.9115 C.ar    1  UNL1        0.0016
     21 C         138.3792  143.7507  163.4222 C.ar    1  UNL1        0.0062
     22 C         139.5483  143.3937  162.5529 C.ar    1  UNL1        0.0727
     23 C         140.8832  143.1043  163.1729 C.ar    1  UNL1        0.1567
     24 C         139.3826  143.3261  161.0637 C.ar    1  UNL1        0.1862
     25 N         138.6599  142.2529  160.3048 N.ar    1  UNL1       -0.2033
     26 C         138.7411  142.5833  158.8439 C.ar    1  UNL1        0.1972
     27 N         139.5141  143.8608  158.7000 N.ar    1  UNL1       -0.2281
     28 C         139.8343  144.5570  157.4105 C.3     1  UNL1        0.1556
     29 N         139.9105  144.3199  160.0719 N.ar    1  UNL1       -0.1483
     30 O         142.0523  142.7473  162.3036 O.3     1  UNL1       -0.4700
     31 C         143.0495  143.7995  161.9185 C.3     1  UNL1        0.2525
@<TRIPOS>BOND
     1     9    10    1
     2    10     7   am
     3     7     8    2
     4     7     1    1
     5     1     2   ar
     6     2     3   ar
     7     3     4   ar
     8     4    11    1
     9    11    12   am
    10    12    13    2
    11    12    14    1
    12    14    15    1
    13    15    16    1
    14     4     5   ar
    15     5     6   ar
    16     6    17    1
    17    17    18    1
    18    18    19   ar
    19    19    20   ar
    20    20    21   ar
    21    21    22   ar
    22    22    24    1
    23    24    25   ar
    24    25    26   ar
    25    26    27   ar
    26    27    28    1
    27    27    29   ar
    28    22    23   ar
    29    23    30    1
    30    30    31    1
    31     6     1   ar
    32    23    18   ar
    33    16    14    1
    34    29    24   ar
