@<TRIPOS>MOLECULE
*****
 36 40 0 0 0
SMALL
GASTEIGER

@<TRIPOS>ATOM
      1 N         139.7407  143.3287  160.5034 N.3     1  UNL1       -0.2678
      2 C         139.0272  142.8464  159.2753 C.3     1  UNL1        0.1023
      3 C         139.0771  143.4058  157.8843 C.ar    1  UNL1        0.0295
      4 C         138.2087  142.6207  156.9466 C.ar    1  UNL1        0.0115
      5 C         138.1161  143.0153  155.5023 C.ar    1  UNL1        0.0584
      6 CL        137.2477  142.2302  154.5645 Cl      1  UNL1       -0.0822
      7 C         138.8918  144.1950  154.9960 C.ar    1  UNL1        0.0258
      8 C         139.7603  144.9802  155.9338 C.ar    1  UNL1        0.0921
      9 CL        140.5360  146.1599  155.4275 Cl      1  UNL1       -0.0791
     10 C         139.8528  144.5854  157.3781 C.ar    1  UNL1        0.1464
     11 O         140.7703  145.4973  158.1375 O.3     1  UNL1       -0.4734
     12 C         141.1386  145.4545  159.5910 C.3     1  UNL1        0.2215
     13 C         140.6804  144.4894  160.6439 C.3     1  UNL1        0.1061
     14 N         138.9589  140.9831  164.2633 N.pl3   1  UNL1       -0.2769
     15 C         139.9923  140.5090  163.2848 C.3     1  UNL1        0.0950
     16 C         140.2529  141.2910  162.0315 C.3     1  UNL1        0.0375
     17 C         139.4801  142.5469  161.7567 C.3     1  UNL1        0.0613
     18 C         138.4468  143.0209  162.7352 C.3     1  UNL1        0.0375
     19 C         138.1861  142.2390  163.9886 C.3     1  UNL1        0.0950
     20 N         136.9800  137.4648  167.6672 N.pl3   1  UNL1       -0.3278
     21 C         137.7887  138.5840  167.0811 C.ar    1  UNL1        0.2099
     22 N         137.7222  139.0718  165.6642 N.ar    1  UNL1       -0.1804
     23 C         138.6983  140.2012  165.5166 C.ar    1  UNL1        0.2395
     24 N         139.3681  140.4113  166.8422 N.ar    1  UNL1       -0.1349
     25 N         138.8059  139.4118  167.8091 N.ar    1  UNL1       -0.2453
     26 H         136.3339  136.9781  167.1060 H       1  UNL1        0.1451
     27 H         137.0953  137.2170  168.6130 H       1  UNL1        0.1451
     28 H         139.0599  139.3160  168.7554 H       1  UNL1        0.1919
     29 C         141.2352  144.7148  162.0192 C.3     1  UNL1        0.0461
     30 C         142.4422  143.9500  162.4757 C.ar    1  UNL1       -0.0207
     31 C         142.7015  143.7632  163.9413 C.ar    1  UNL1       -0.0034
     32 C         143.9083  142.9984  164.3979 C.ar    1  UNL1        0.0111
     33 C         144.8560  142.4205  163.3889 C.ar    1  UNL1        0.0577
     34 CL        146.0630  141.6557  163.8454 Cl      1  UNL1       -0.0822
     35 C         144.5967  142.6073  161.9233 C.ar    1  UNL1        0.0111
     36 C         143.3898  143.3721  161.4667 C.ar    1  UNL1       -0.0034
@<TRIPOS>BOND
     1    20    21    1
     2    21    22   ar
     3    22    23   ar
     4    23    14    1
     5    14    15    1
     6    15    16    1
     7    16    17    1
     8    17     1    1
     9     1     2    1
    10     2     3    1
    11     3     4   ar
    12     4     5   ar
    13     5     6    1
    14     5     7   ar
    15     7     8   ar
    16     8     9    1
    17     8    10   ar
    18    10    11    1
    19    11    12    1
    20    12    13    1
    21    13    29    1
    22    29    30    1
    23    30    31   ar
    24    31    32   ar
    25    32    33   ar
    26    33    34    1
    27    33    35   ar
    28    35    36   ar
    29    17    18    1
    30    18    19    1
    31    23    24   ar
    32    24    25   ar
    33    25    21   ar
    34    19    14    1
    35    13     1    1
    36    36    30   ar
    37    10     3   ar
    38    20    26    1
    39    20    27    1
    40    25    28    1
@<TRIPOS>MOLECULE
*****
 36 40 0 0 0
SMALL
GASTEIGER

@<TRIPOS>ATOM
      1 N         140.5165  142.2566  164.8826 N.3     1  UNL1       -0.2678
      2 C         141.6157  142.5361  165.8644 C.3     1  UNL1        0.1023
      3 C         141.7955  141.9865  167.2485 C.ar    1  UNL1        0.0295
      4 C         143.0364  142.5264  167.8955 C.ar    1  UNL1        0.0115
      5 C         143.4024  142.1016  169.2868 C.ar    1  UNL1        0.0584
      6 CL        144.6432  142.6415  169.9339 Cl      1  UNL1       -0.0822
      7 C         142.5275  141.1369  170.0310 C.ar    1  UNL1        0.0258
      8 C         141.2866  140.5969  169.3839 C.ar    1  UNL1        0.0921
      9 CL        140.4117  139.6322  170.1281 Cl      1  UNL1       -0.0791
     10 C         140.9206  141.0218  167.9926 C.ar    1  UNL1        0.1464
     11 O         139.6498  140.3683  167.5365 O.3     1  UNL1       -0.4734
     12 C         138.9400  140.5182  166.2236 C.3     1  UNL1        0.2215
     13 C         139.3259  141.3586  165.0425 C.3     1  UNL1        0.1061
     14 N         140.8335  144.3953  160.9360 N.pl3   1  UNL1       -0.2769
     15 C         139.8448  144.8604  161.9639 C.3     1  UNL1        0.0950
     16 C         139.7392  144.1474  163.2794 C.3     1  UNL1        0.0375
     17 C         140.6222  142.9695  163.5671 C.3     1  UNL1        0.0613
     18 C         141.6109  142.5045  162.5394 C.3     1  UNL1        0.0375
     19 C         141.7165  143.2174  161.2238 C.3     1  UNL1        0.0950
     20 N         139.5764  147.0422  156.5436 N.pl3   1  UNL1       -0.3278
     21 C         140.3613  146.3249  157.6016 C.ar    1  UNL1        0.2099
     22 N         139.8032  145.7208  158.8560 N.ar    1  UNL1       -0.1804
     23 C         140.9391  145.1082  159.6206 C.ar    1  UNL1        0.2395
     24 N         142.1992  145.3338  158.8387 N.ar    1  UNL1       -0.1349
     25 N         141.8420  146.0858  157.5909 N.ar    1  UNL1       -0.2453
     26 H         138.6026  147.1494  156.6408 H       1  UNL1        0.1451
     27 H         140.0350  147.4059  155.7519 H       1  UNL1        0.1451
     28 H         142.4693  146.3721  156.8882 H       1  UNL1        0.1919
     29 C         138.3981  141.2922  163.8657 C.3     1  UNL1        0.0461
     30 C         138.7916  140.5169  162.6433 C.ar    1  UNL1       -0.0207
     31 C         138.3964  141.0103  161.2829 C.ar    1  UNL1       -0.0034
     32 C         138.7898  140.2351  160.0605 C.ar    1  UNL1        0.0111
     33 C         139.5783  138.9666  160.1984 C.ar    1  UNL1        0.0577
     34 CL        139.9717  138.1913  158.9760 Cl      1  UNL1       -0.0822
     35 C         139.9734  138.4732  161.5588 C.ar    1  UNL1        0.0111
     36 C         139.5800  139.2483  162.7811 C.ar    1  UNL1       -0.0034
@<TRIPOS>BOND
     1    20    21    1
     2    21    22   ar
     3    22    23   ar
     4    23    14    1
     5    14    15    1
     6    15    16    1
     7    16    17    1
     8    17     1    1
     9     1     2    1
    10     2     3    1
    11     3     4   ar
    12     4     5   ar
    13     5     6    1
    14     5     7   ar
    15     7     8   ar
    16     8     9    1
    17     8    10   ar
    18    10    11    1
    19    11    12    1
    20    12    13    1
    21    13    29    1
    22    29    30    1
    23    30    31   ar
    24    31    32   ar
    25    32    33   ar
    26    33    34    1
    27    33    35   ar
    28    35    36   ar
    29    17    18    1
    30    18    19    1
    31    23    24   ar
    32    24    25   ar
    33    25    21   ar
    34    19    14    1
    35    13     1    1
    36    36    30   ar
    37    10     3   ar
    38    20    26    1
    39    20    27    1
    40    25    28    1
@<TRIPOS>MOLECULE
*****
 36 40 0 0 0
SMALL
GASTEIGER

@<TRIPOS>ATOM
      1 N         140.8353  140.1481  164.9260 N.3     1  UNL1       -0.2678
      2 C         141.1427  141.1766  165.9738 C.3     1  UNL1        0.1023
      3 C         140.5875  141.2918  167.3625 C.ar    1  UNL1        0.0295
      4 C         141.1629  142.4728  168.0864 C.ar    1  UNL1        0.0115
      5 C         140.7385  142.7692  169.4943 C.ar    1  UNL1        0.0584
      6 CL        141.3138  143.9502  170.2183 Cl      1  UNL1       -0.0822
      7 C         139.7387  141.8844  170.1782 C.ar    1  UNL1        0.0258
      8 C         139.1634  140.7033  169.4542 C.ar    1  UNL1        0.0921
      9 CL        138.1636  139.8186  170.1382 Cl      1  UNL1       -0.0791
     10 C         139.5878  140.4071  168.0463 C.ar    1  UNL1        0.1464
     11 O         138.8963  139.1885  167.5105 O.3     1  UNL1       -0.4734
     12 C         139.0338  138.5539  166.1583 C.3     1  UNL1        0.2215
     13 C         139.8968  138.9810  165.0082 C.3     1  UNL1        0.1061
     14 N         143.0174  140.6280  161.0198 N.pl3   1  UNL1       -0.2769
     15 C         143.4081  139.5329  161.9676 C.3     1  UNL1        0.0950
     16 C         142.6807  139.3730  163.2696 C.3     1  UNL1        0.0375
     17 C         141.5626  140.3081  163.6239 C.3     1  UNL1        0.0613
     18 C         141.1719  141.4031  162.6762 C.3     1  UNL1        0.0375
     19 C         141.8993  141.5630  161.3740 C.3     1  UNL1        0.0950
     20 N         145.6771  142.7475  156.9808 N.pl3   1  UNL1       -0.3278
     21 C         144.9673  141.7621  157.8612 C.ar    1  UNL1        0.2099
     22 N         144.3393  142.0601  159.1905 N.ar    1  UNL1       -0.1804
     23 C         143.7448  140.7879  159.7178 C.ar    1  UNL1        0.2395
     24 N         144.0053  139.7037  158.7144 N.ar    1  UNL1       -0.1349
     25 N         144.7609  140.3059  157.5670 N.ar    1  UNL1       -0.2453
     26 H         145.7620  143.6872  157.2621 H       1  UNL1        0.1451
     27 H         146.0581  142.4547  156.1215 H       1  UNL1        0.1451
     28 H         145.0675  139.8290  156.7622 H       1  UNL1        0.1919
     29 C         139.8097  138.1280  163.7773 C.3     1  UNL1        0.0461
     30 C         139.2379  138.6942  162.5113 C.ar    1  UNL1       -0.0207
     31 C         138.0941  139.6627  162.5724 C.ar    1  UNL1       -0.0034
     32 C         137.5224  140.2289  161.3065 C.ar    1  UNL1        0.0111
     33 C         138.0945  139.8265  159.9795 C.ar    1  UNL1        0.0577
     34 CL        137.5228  140.3927  158.7135 Cl      1  UNL1       -0.0822
     35 C         139.2383  138.8580  159.9185 C.ar    1  UNL1        0.0111
     36 C         139.8100  138.2918  161.1843 C.ar    1  UNL1       -0.0034
@<TRIPOS>BOND
     1    20    21    1
     2    21    22   ar
     3    22    23   ar
     4    23    14    1
     5    14    15    1
     6    15    16    1
     7    16    17    1
     8    17     1    1
     9     1     2    1
    10     2     3    1
    11     3     4   ar
    12     4     5   ar
    13     5     6    1
    14     5     7   ar
    15     7     8   ar
    16     8     9    1
    17     8    10   ar
    18    10    11    1
    19    11    12    1
    20    12    13    1
    21    13    29    1
    22    29    30    1
    23    30    31   ar
    24    31    32   ar
    25    32    33   ar
    26    33    34    1
    27    33    35   ar
    28    35    36   ar
    29    17    18    1
    30    18    19    1
    31    23    24   ar
    32    24    25   ar
    33    25    21   ar
    34    19    14    1
    35    13     1    1
    36    36    30   ar
    37    10     3   ar
    38    20    26    1
    39    20    27    1
    40    25    28    1
@<TRIPOS>MOLECULE
*****
 36 40 0 0 0
SMALL
GASTEIGER

@<TRIPOS>ATOM
      1 N         142.3675  141.2440  164.9113 N.3     1  UNL1       -0.2678
      2 C         141.6870  141.8804  166.0869 C.3     1  UNL1        0.1023
      3 C         141.5941  141.3792  167.4977 C.ar    1  UNL1        0.0295
      4 C         140.8190  142.3257  168.3655 C.ar    1  UNL1        0.0115
      5 C         140.6084  142.0111  169.8170 C.ar    1  UNL1        0.0584
      6 CL        139.8333  142.9576  170.6849 Cl      1  UNL1       -0.0822
      7 C         141.1729  140.7498  170.4005 C.ar    1  UNL1        0.0258
      8 C         141.9481  139.8032  169.5326 C.ar    1  UNL1        0.0921
      9 CL        142.5126  138.5420  170.1162 Cl      1  UNL1       -0.0791
     10 C         142.1586  140.1180  168.0812 C.ar    1  UNL1        0.1464
     11 O         142.9556  139.0463  167.3981 O.3     1  UNL1       -0.4734
     12 C         143.3848  138.9713  165.9628 C.3     1  UNL1        0.2215
     13 C         143.1230  139.9494  164.8561 C.3     1  UNL1        0.1061
     14 N         142.1078  143.5201  161.0380 N.pl3   1  UNL1       -0.2769
     15 C         143.3932  143.4992  161.8109 C.3     1  UNL1        0.0950
     16 C         143.4797  142.7404  163.1020 C.3     1  UNL1        0.0375
     17 C         142.2809  142.0027  163.6202 C.3     1  UNL1        0.0613
     18 C         140.9955  142.0236  162.8473 C.3     1  UNL1        0.0375
     19 C         140.9089  142.7824  161.5562 C.3     1  UNL1        0.0950
     20 N         140.3765  146.6731  157.1726 N.pl3   1  UNL1       -0.3278
     21 C         141.2255  145.7281  157.9702 C.ar    1  UNL1        0.2099
     22 N         140.8982  145.1807  159.3279 N.ar    1  UNL1       -0.1804
     23 C         142.0212  144.2788  159.7470 C.ar    1  UNL1        0.2395
     24 N         143.0425  144.2689  158.6483 N.ar    1  UNL1       -0.1349
     25 N         142.5506  145.1646  157.5503 N.ar    1  UNL1       -0.2453
     26 H         139.5175  146.9889  157.5353 H       1  UNL1        0.1451
     27 H         140.6784  146.9776  156.2863 H       1  UNL1        0.1451
     28 H         143.0158  145.3501  156.7027 H       1  UNL1        0.1919
     29 C         143.6921  139.5846  163.5170 C.3     1  UNL1        0.0461
     30 C         142.7752  139.2380  162.3815 C.ar    1  UNL1       -0.0207
     31 C         143.1160  139.6661  160.9849 C.ar    1  UNL1       -0.0034
     32 C         142.1992  139.3195  159.8494 C.ar    1  UNL1        0.0111
     33 C         140.9416  138.5448  160.1106 C.ar    1  UNL1        0.0577
     34 CL        140.0247  138.1981  158.9751 Cl      1  UNL1       -0.0822
     35 C         140.6008  138.1167  161.5073 C.ar    1  UNL1        0.0111
     36 C         141.5175  138.4633  162.6427 C.ar    1  UNL1       -0.0034
@<TRIPOS>BOND
     1    20    21    1
     2    21    22   ar
     3    22    23   ar
     4    23    14    1
     5    14    15    1
     6    15    16    1
     7    16    17    1
     8    17     1    1
     9     1     2    1
    10     2     3    1
    11     3     4   ar
    12     4     5   ar
    13     5     6    1
    14     5     7   ar
    15     7     8   ar
    16     8     9    1
    17     8    10   ar
    18    10    11    1
    19    11    12    1
    20    12    13    1
    21    13    29    1
    22    29    30    1
    23    30    31   ar
    24    31    32   ar
    25    32    33   ar
    26    33    34    1
    27    33    35   ar
    28    35    36   ar
    29    17    18    1
    30    18    19    1
    31    23    24   ar
    32    24    25   ar
    33    25    21   ar
    34    19    14    1
    35    13     1    1
    36    36    30   ar
    37    10     3   ar
    38    20    26    1
    39    20    27    1
    40    25    28    1
@<TRIPOS>MOLECULE
*****
 36 40 0 0 0
SMALL
GASTEIGER

@<TRIPOS>ATOM
      1 N         142.5490  140.7029  162.0077 N.3     1  UNL1       -0.2678
      2 C         142.5542  139.4828  161.1351 C.3     1  UNL1        0.1023
      3 C         142.7001  139.3997  159.6445 C.ar    1  UNL1        0.0295
      4 C         142.6512  137.9784  159.1676 C.ar    1  UNL1        0.0115
      5 C         142.7791  137.6734  157.7045 C.ar    1  UNL1        0.0584
      6 CL        142.7303  136.2521  157.2274 Cl      1  UNL1       -0.0822
      7 C         142.9559  138.7898  156.7183 C.ar    1  UNL1        0.0258
      8 C         143.0047  140.2111  157.1953 C.ar    1  UNL1        0.0921
      9 CL        143.1815  141.3275  156.2091 Cl      1  UNL1       -0.0791
     10 C         142.8768  140.5160  158.6584 C.ar    1  UNL1        0.1464
     11 O         142.9513  141.9913  158.9193 O.3     1  UNL1       -0.4734
     12 C         142.8675  142.7145  160.2307 C.3     1  UNL1        0.2215
     13 C         142.6885  142.1411  161.6052 C.3     1  UNL1        0.1061
     14 N         142.0489  139.9484  166.4157 N.pl3   1  UNL1       -0.2769
     15 C         140.8681  139.8380  165.4972 C.3     1  UNL1        0.0950
     16 C         141.0349  140.0895  164.0278 C.3     1  UNL1        0.0375
     17 C         142.3824  140.4514  163.4770 C.3     1  UNL1        0.0613
     18 C         143.5631  140.5618  164.3955 C.3     1  UNL1        0.0375
     19 C         143.3964  140.3103  165.8649 C.3     1  UNL1        0.0950
     20 N         139.9722  139.6992  171.2640 N.pl3   1  UNL1       -0.3278
     21 C         140.9277  139.5823  170.1135 C.ar    1  UNL1        0.2099
     22 N         140.6548  139.9900  168.6960 N.ar    1  UNL1       -0.1804
     23 C         141.8822  139.6969  167.8850 C.ar    1  UNL1        0.2395
     24 N         142.9136  139.1081  168.8013 N.ar    1  UNL1       -0.1349
     25 N         142.3236  139.0373  170.1786 N.ar    1  UNL1       -0.2453
     26 H         139.0725  140.0722  171.1207 H       1  UNL1        0.1451
     27 H         140.2449  139.4029  172.1624 H       1  UNL1        0.1451
     28 H         142.7736  138.6935  170.9840 H       1  UNL1        0.1919
     29 C         142.6428  143.1377  162.7253 C.3     1  UNL1        0.0461
     30 C         141.3273  143.5189  163.3370 C.ar    1  UNL1       -0.0207
     31 C         141.1865  143.5905  164.8287 C.ar    1  UNL1       -0.0034
     32 C         139.8710  143.9716  165.4404 C.ar    1  UNL1        0.0111
     33 C         138.6963  144.2812  164.5605 C.ar    1  UNL1        0.0577
     34 CL        137.3808  144.6624  165.1722 Cl      1  UNL1       -0.0822
     35 C         138.8371  144.2097  163.0688 C.ar    1  UNL1        0.0111
     36 C         140.1526  143.8285  162.4571 C.ar    1  UNL1       -0.0034
@<TRIPOS>BOND
     1    20    21    1
     2    21    22   ar
     3    22    23   ar
     4    23    14    1
     5    14    15    1
     6    15    16    1
     7    16    17    1
     8    17     1    1
     9     1     2    1
    10     2     3    1
    11     3     4   ar
    12     4     5   ar
    13     5     6    1
    14     5     7   ar
    15     7     8   ar
    16     8     9    1
    17     8    10   ar
    18    10    11    1
    19    11    12    1
    20    12    13    1
    21    13    29    1
    22    29    30    1
    23    30    31   ar
    24    31    32   ar
    25    32    33   ar
    26    33    34    1
    27    33    35   ar
    28    35    36   ar
    29    17    18    1
    30    18    19    1
    31    23    24   ar
    32    24    25   ar
    33    25    21   ar
    34    19    14    1
    35    13     1    1
    36    36    30   ar
    37    10     3   ar
    38    20    26    1
    39    20    27    1
    40    25    28    1
@<TRIPOS>MOLECULE
*****
 36 40 0 0 0
SMALL
GASTEIGER

@<TRIPOS>ATOM
      1 N         141.5960  138.9427  161.0853 N.3     1  UNL1       -0.2678
      2 C         140.7272  138.5450  159.9290 C.3     1  UNL1        0.1023
      3 C         141.0953  138.4279  158.4795 C.ar    1  UNL1        0.0295
      4 C         139.9222  137.9986  157.6492 C.ar    1  UNL1        0.0115
      5 C         140.0767  137.8209  156.1678 C.ar    1  UNL1        0.0584
      6 CL        138.9036  137.3915  155.3374 Cl      1  UNL1       -0.0822
      7 C         141.4044  138.0726  155.5167 C.ar    1  UNL1        0.0258
      8 C         142.5775  138.5020  156.3470 C.ar    1  UNL1        0.0921
      9 CL        143.9052  138.7537  155.6960 Cl      1  UNL1       -0.0791
     10 C         142.4229  138.6796  157.8285 C.ar    1  UNL1        0.1464
     11 O         143.7105  139.1106  158.4660 O.3     1  UNL1       -0.4734
     12 C         143.9884  139.3962  159.9121 C.3     1  UNL1        0.2215
     13 C         143.0473  139.3215  161.0778 C.3     1  UNL1        0.1061
     14 N         139.5816  139.0078  165.1088 N.pl3   1  UNL1       -0.2769
     15 C         139.3671  140.1364  164.1442 C.3     1  UNL1        0.0950
     16 C         140.0386  140.1146  162.8031 C.3     1  UNL1        0.0375
     17 C         140.9246  138.9643  162.4265 C.3     1  UNL1        0.0613
     18 C         141.1392  137.8358  163.3910 C.3     1  UNL1        0.0375
     19 C         140.4677  137.8576  164.7322 C.3     1  UNL1        0.0950
     20 N         138.4962  140.0761  170.1646 N.pl3   1  UNL1       -0.3278
     21 C         138.4112  139.5206  168.7738 C.ar    1  UNL1        0.2099
     22 N         139.3801  139.7827  167.6591 N.ar    1  UNL1       -0.1804
     23 C         138.9102  139.0296  166.4499 C.ar    1  UNL1        0.2395
     24 N         137.6509  138.3021  166.8173 N.ar    1  UNL1       -0.1349
     25 N         137.3426  138.6056  168.2536 N.ar    1  UNL1       -0.2453
     26 H         139.2398  140.6719  170.4121 H       1  UNL1        0.1451
     27 H         137.8083  139.8448  170.8298 H       1  UNL1        0.1451
     28 H         136.5738  138.2641  168.7651 H       1  UNL1        0.1919
     29 C         143.6354  139.6719  162.4125 C.3     1  UNL1        0.0461
     30 C         143.6886  141.1039  162.8560 C.ar    1  UNL1       -0.0207
     31 C         144.3439  142.1348  161.9853 C.ar    1  UNL1       -0.0034
     32 C         144.3972  143.5667  162.4288 C.ar    1  UNL1        0.0111
     33 C         143.7952  143.9678  163.7428 C.ar    1  UNL1        0.0577
     34 CL        143.8485  145.3998  164.1864 Cl      1  UNL1       -0.0822
     35 C         143.1399  142.9369  164.6135 C.ar    1  UNL1        0.0111
     36 C         143.0867  141.5050  164.1701 C.ar    1  UNL1       -0.0034
@<TRIPOS>BOND
     1    20    21    1
     2    21    22   ar
     3    22    23   ar
     4    23    14    1
     5    14    15    1
     6    15    16    1
     7    16    17    1
     8    17     1    1
     9     1     2    1
    10     2     3    1
    11     3     4   ar
    12     4     5   ar
    13     5     6    1
    14     5     7   ar
    15     7     8   ar
    16     8     9    1
    17     8    10   ar
    18    10    11    1
    19    11    12    1
    20    12    13    1
    21    13    29    1
    22    29    30    1
    23    30    31   ar
    24    31    32   ar
    25    32    33   ar
    26    33    34    1
    27    33    35   ar
    28    35    36   ar
    29    17    18    1
    30    18    19    1
    31    23    24   ar
    32    24    25   ar
    33    25    21   ar
    34    19    14    1
    35    13     1    1
    36    36    30   ar
    37    10     3   ar
    38    20    26    1
    39    20    27    1
    40    25    28    1
@<TRIPOS>MOLECULE
*****
 36 40 0 0 0
SMALL
GASTEIGER

@<TRIPOS>ATOM
      1 N         141.7214  142.1895  162.1862 N.3     1  UNL1       -0.2678
      2 C         142.9088  142.1981  161.2695 C.3     1  UNL1        0.1023
      3 C         142.9366  142.3388  159.7763 C.ar    1  UNL1        0.0295
      4 C         144.3397  142.2960  159.2480 C.ar    1  UNL1        0.0115
      5 C         144.5903  142.4201  157.7742 C.ar    1  UNL1        0.0584
      6 CL        145.9935  142.3773  157.2457 Cl      1  UNL1       -0.0822
      7 C         143.4377  142.5868  156.8289 C.ar    1  UNL1        0.0258
      8 C         142.0344  142.6296  157.3574 C.ar    1  UNL1        0.0921
      9 CL        140.8818  142.7963  156.4121 Cl      1  UNL1       -0.0791
     10 C         141.7839  142.5055  158.8312 C.ar    1  UNL1        0.1464
     11 O         140.3188  142.5728  159.1455 O.3     1  UNL1       -0.4734
     12 C         139.6444  142.4900  160.4828 C.3     1  UNL1        0.2215
     13 C         140.2687  142.3193  161.8360 C.3     1  UNL1        0.1061
     14 N         142.6394  141.7104  166.5654 N.pl3   1  UNL1       -0.2769
     15 C         142.7494  140.5327  165.6428 C.3     1  UNL1        0.0950
     16 C         142.4434  140.6925  164.1831 C.3     1  UNL1        0.0375
     17 C         142.0274  142.0298  163.6459 C.3     1  UNL1        0.0613
     18 C         141.9173  143.2074  164.5685 C.3     1  UNL1        0.0375
     19 C         142.2233  143.0477  166.0283 C.3     1  UNL1        0.0950
     20 N         143.4206  139.5670  171.3274 N.pl3   1  UNL1       -0.3278
     21 C         143.3044  140.5655  170.2140 C.ar    1  UNL1        0.2099
     22 N         142.9443  140.2603  168.7902 N.ar    1  UNL1       -0.1804
     23 C         142.9453  141.5507  168.0251 C.ar    1  UNL1        0.2395
     24 N         143.3061  142.6531  168.9761 N.ar    1  UNL1       -0.1349
     25 N         143.5280  142.0442  170.3289 N.ar    1  UNL1       -0.2453
     26 H         143.2537  138.6127  171.1522 H       1  UNL1        0.1451
     27 H         143.6637  139.8660  172.2333 H       1  UNL1        0.1451
     28 H         143.7767  142.5298  171.1484 H       1  UNL1        0.1919
     29 C         139.3140  142.2724  162.9919 C.3     1  UNL1        0.0461
     30 C         139.0607  140.9764  163.7035 C.ar    1  UNL1       -0.0207
     31 C         139.1085  139.6828  162.9455 C.ar    1  UNL1       -0.0034
     32 C         138.8553  138.3869  163.6569 C.ar    1  UNL1        0.0111
     33 C         138.5544  138.3843  165.1265 C.ar    1  UNL1        0.0577
     34 CL        138.3011  137.0883  165.8380 Cl      1  UNL1       -0.0822
     35 C         138.5066  139.6779  165.8845 C.ar    1  UNL1        0.0111
     36 C         138.7598  140.9738  165.1730 C.ar    1  UNL1       -0.0034
@<TRIPOS>BOND
     1    20    21    1
     2    21    22   ar
     3    22    23   ar
     4    23    14    1
     5    14    15    1
     6    15    16    1
     7    16    17    1
     8    17     1    1
     9     1     2    1
    10     2     3    1
    11     3     4   ar
    12     4     5   ar
    13     5     6    1
    14     5     7   ar
    15     7     8   ar
    16     8     9    1
    17     8    10   ar
    18    10    11    1
    19    11    12    1
    20    12    13    1
    21    13    29    1
    22    29    30    1
    23    30    31   ar
    24    31    32   ar
    25    32    33   ar
    26    33    34    1
    27    33    35   ar
    28    35    36   ar
    29    17    18    1
    30    18    19    1
    31    23    24   ar
    32    24    25   ar
    33    25    21   ar
    34    19    14    1
    35    13     1    1
    36    36    30   ar
    37    10     3   ar
    38    20    26    1
    39    20    27    1
    40    25    28    1
@<TRIPOS>MOLECULE
*****
 36 40 0 0 0
SMALL
GASTEIGER

@<TRIPOS>ATOM
      1 N         140.5620  141.8179  165.3522 N.3     1  UNL1       -0.2678
      2 C         141.2756  142.4423  166.5147 C.3     1  UNL1        0.1023
      3 C         141.2137  142.0611  167.9642 C.ar    1  UNL1        0.0295
      4 C         142.0865  142.9481  168.8016 C.ar    1  UNL1        0.0115
      5 C         142.1688  142.7356  170.2843 C.ar    1  UNL1        0.0584
      6 CL        143.0416  143.6225  171.1218 Cl      1  UNL1       -0.0822
      7 C         141.3783  141.6360  170.9293 C.ar    1  UNL1        0.0258
      8 C         140.5055  140.7490  170.0918 C.ar    1  UNL1        0.0921
      9 CL        139.7150  139.6495  170.7368 Cl      1  UNL1       -0.0791
     10 C         140.4233  140.9616  168.6091 C.ar    1  UNL1        0.1464
     11 O         139.4992  139.9716  167.9641 O.3     1  UNL1       -0.4734
     12 C         139.1376  139.8366  166.5146 C.3     1  UNL1        0.2215
     13 C         139.6106  140.6584  165.3523 C.3     1  UNL1        0.1061
     14 N         141.3848  143.6688  161.3338 N.pl3   1  UNL1       -0.2769
     15 C         140.0952  143.9586  162.0432 C.3     1  UNL1        0.0950
     16 C         139.8210  143.3416  163.3826 C.3     1  UNL1        0.0375
     17 C         140.8363  142.4348  164.0128 C.3     1  UNL1        0.0613
     18 C         142.1258  142.1451  163.3035 C.3     1  UNL1        0.0375
     19 C         142.4001  142.7621  161.9639 C.3     1  UNL1        0.0950
     20 N         140.9034  146.5675  156.9468 N.pl3   1  UNL1       -0.3278
     21 C         141.4378  145.6181  157.9779 C.ar    1  UNL1        0.2099
     22 N         140.7793  145.2681  159.2794 N.ar    1  UNL1       -0.1804
     23 C         141.6590  144.2857  159.9944 C.ar    1  UNL1        0.2395
     24 N         142.8611  144.0286  159.1348 N.ar    1  UNL1       -0.1349
     25 N         142.7243  144.8522  157.8885 N.ar    1  UNL1       -0.2453
     26 H         140.0448  147.0252  157.0971 H       1  UNL1        0.1451
     27 H         141.4113  146.7330  156.1198 H       1  UNL1        0.1451
     28 H         143.3662  144.8843  157.1428 H       1  UNL1        0.1919
     29 C         139.0592  140.2690  164.0127 C.3     1  UNL1        0.0461
     30 C         139.9366  139.5752  163.0133 C.ar    1  UNL1       -0.0207
     31 C         139.7538  139.8346  161.5472 C.ar    1  UNL1       -0.0034
     32 C         140.6312  139.1409  160.5477 C.ar    1  UNL1        0.0111
     33 C         141.6913  138.1878  161.0143 C.ar    1  UNL1        0.0577
     34 CL        142.5687  137.4940  160.0148 Cl      1  UNL1       -0.0822
     35 C         141.8740  137.9284  162.4804 C.ar    1  UNL1        0.0111
     36 C         140.9967  138.6221  163.4798 C.ar    1  UNL1       -0.0034
@<TRIPOS>BOND
     1    20    21    1
     2    21    22   ar
     3    22    23   ar
     4    23    14    1
     5    14    15    1
     6    15    16    1
     7    16    17    1
     8    17     1    1
     9     1     2    1
    10     2     3    1
    11     3     4   ar
    12     4     5   ar
    13     5     6    1
    14     5     7   ar
    15     7     8   ar
    16     8     9    1
    17     8    10   ar
    18    10    11    1
    19    11    12    1
    20    12    13    1
    21    13    29    1
    22    29    30    1
    23    30    31   ar
    24    31    32   ar
    25    32    33   ar
    26    33    34    1
    27    33    35   ar
    28    35    36   ar
    29    17    18    1
    30    18    19    1
    31    23    24   ar
    32    24    25   ar
    33    25    21   ar
    34    19    14    1
    35    13     1    1
    36    36    30   ar
    37    10     3   ar
    38    20    26    1
    39    20    27    1
    40    25    28    1
@<TRIPOS>MOLECULE
*****
 36 40 0 0 0
SMALL
GASTEIGER

@<TRIPOS>ATOM
      1 N         141.2483  139.3648  164.7671 N.3     1  UNL1       -0.2678
      2 C         140.3535  139.7923  165.8927 C.3     1  UNL1        0.1023
      3 C         140.6364  139.7874  167.3658 C.ar    1  UNL1        0.0295
      4 C         139.4645  140.2982  168.1505 C.ar    1  UNL1        0.0115
      5 C         139.5399  140.3754  169.6466 C.ar    1  UNL1        0.0584
      6 CL        138.3681  140.8863  170.4314 Cl      1  UNL1       -0.0822
      7 C         140.7872  139.9417  170.3580 C.ar    1  UNL1        0.0258
      8 C         141.9591  139.4309  169.5733 C.ar    1  UNL1        0.0921
      9 CL        143.2065  138.9972  170.2847 Cl      1  UNL1       -0.0791
     10 C         141.8836  139.3537  168.0771 C.ar    1  UNL1        0.1464
     11 O         143.1563  138.8179  167.4912 O.3     1  UNL1       -0.4734
     12 C         143.4958  138.5834  166.0491 C.3     1  UNL1        0.2215
     13 C         142.6466  138.8268  164.8368 C.3     1  UNL1        0.1061
     14 N         139.5065  139.7472  160.6355 N.pl3   1  UNL1       -0.2769
     15 C         139.9518  140.9721  161.3781 C.3     1  UNL1        0.0950
     16 C         140.5324  140.8446  162.7553 C.3     1  UNL1        0.0375
     17 C         140.6677  139.4922  163.3900 C.3     1  UNL1        0.0613
     18 C         140.2224  138.2673  162.6475 C.3     1  UNL1        0.0375
     19 C         139.6418  138.3948  161.2702 C.3     1  UNL1        0.0950
     20 N         136.7384  141.5012  156.4953 N.pl3   1  UNL1       -0.3278
     21 C         137.6535  140.6809  157.3553 C.ar    1  UNL1        0.2099
     22 N         137.9715  140.9368  158.7988 N.ar    1  UNL1       -0.1804
     23 C         138.9259  139.8747  159.2584 C.ar    1  UNL1        0.2395
     24 N         139.1977  138.9625  158.0991 N.ar    1  UNL1       -0.1349
     25 N         138.4113  139.4608  156.9229 N.ar    1  UNL1       -0.2453
     26 H         136.2835  142.2889  156.8721 H       1  UNL1        0.1451
     27 H         136.5926  141.2519  155.5541 H       1  UNL1        0.1451
     28 H         138.3954  139.0579  156.0248 H       1  UNL1        0.1919
     29 C         143.2796  138.4873  163.5200 C.3     1  UNL1        0.0461
     30 C         143.7120  139.5828  162.5909 C.ar    1  UNL1       -0.0207
     31 C         143.4753  139.4519  161.1155 C.ar    1  UNL1       -0.0034
     32 C         143.9076  140.5473  160.1865 C.ar    1  UNL1        0.0111
     33 C         144.5766  141.7736  160.7328 C.ar    1  UNL1        0.0577
     34 CL        145.0090  142.8691  159.8038 Cl      1  UNL1       -0.0822
     35 C         144.8134  141.9045  162.2083 C.ar    1  UNL1        0.0111
     36 C         144.3811  140.8092  163.1373 C.ar    1  UNL1       -0.0034
@<TRIPOS>BOND
     1    20    21    1
     2    21    22   ar
     3    22    23   ar
     4    23    14    1
     5    14    15    1
     6    15    16    1
     7    16    17    1
     8    17     1    1
     9     1     2    1
    10     2     3    1
    11     3     4   ar
    12     4     5   ar
    13     5     6    1
    14     5     7   ar
    15     7     8   ar
    16     8     9    1
    17     8    10   ar
    18    10    11    1
    19    11    12    1
    20    12    13    1
    21    13    29    1
    22    29    30    1
    23    30    31   ar
    24    31    32   ar
    25    32    33   ar
    26    33    34    1
    27    33    35   ar
    28    35    36   ar
    29    17    18    1
    30    18    19    1
    31    23    24   ar
    32    24    25   ar
    33    25    21   ar
    34    19    14    1
    35    13     1    1
    36    36    30   ar
    37    10     3   ar
    38    20    26    1
    39    20    27    1
    40    25    28    1
