@<TRIPOS>MOLECULE
*****
 38 43 0 0 0
SMALL
GASTEIGER

@<TRIPOS>ATOM
      1 C         138.4738  141.8643  164.4798 C.3     1  UNL1        0.0955
      2 C         138.9499  143.1332  165.1228 C.3     1  UNL1        0.0287
      3 C         138.9463  144.4155  164.3446 C.3     1  UNL1        0.0193
      4 C         138.4666  144.4290  162.9234 C.3     1  UNL1        0.0700
      5 C         137.9906  143.1601  162.2805 C.3     1  UNL1        0.0193
      6 C         137.9942  141.8777  163.0587 C.3     1  UNL1        0.0287
      7 C         138.4500  143.7019  163.3097 C.3     1  UNL1        0.1562
      8 O         138.4533  142.5425  164.0134 O.3     1  UNL1       -0.3571
      9 N         138.4630  145.7113  162.1452 N.3     1  UNL1       -0.2939
     10 H         138.2299  146.4547  162.8036 H       1  UNL1        0.1235
     11 C         139.6986  146.1499  161.4167 C.3     1  UNL1        0.0954
     12 C         140.8407  145.1946  161.2345 C.2     1  UNL1       -0.0090
     13 C         141.7694  144.9091  162.3773 C.2     1  UNL1       -0.0009
     14 C         142.9114  143.9539  162.1950 C.ar    1  UNL1        0.0294
     15 C         143.1624  143.3323  160.8532 C.ar    1  UNL1        0.0319
     16 C         144.3045  142.3770  160.6709 C.ar    1  UNL1        0.1403
     17 F         144.5554  141.7554  159.3291 F       1  UNL1       -0.2042
     18 C         145.1955  142.0434  161.8306 C.ar    1  UNL1        0.0319
     19 C         144.9445  142.6651  163.1724 C.ar    1  UNL1        0.0319
     20 C         143.8025  143.6203  163.3546 C.ar    1  UNL1        0.1402
     21 F         143.5515  144.2420  164.6965 F       1  UNL1       -0.2042
     22 C         138.4775  140.5819  165.2581 C.3     1  UNL1        0.0604
     23 O         138.9561  140.9848  170.3464 O.2     1  UNL1       -0.2670
     24 C         140.1477  140.3464  169.6963 C.ar    1  UNL1        0.2611
     25 C         141.3114  139.9043  170.5331 C.ar    1  UNL1        0.0623
     26 C         142.5030  139.2660  169.8831 C.ar    1  UNL1        0.0254
     27 C         142.5309  139.0697  168.3963 C.ar    1  UNL1        0.0972
     28 N         143.5736  138.4694  167.4892 N.ar    1  UNL1       -0.2400
     29 C         143.4592  138.3393  165.9992 C.ar    1  UNL1        0.1282
     30 C         142.2282  138.8294  165.2960 C.ar    1  UNL1        0.1588
     31 F         142.1137  138.6994  163.8061 F       1  UNL1       -0.2027
     32 C         141.1117  139.4494  166.0827 C.ar    1  UNL1        0.0500
     33 C         141.3672  139.5117  167.5595 C.ar    1  UNL1        0.0806
     34 N         140.1756  140.1501  168.2095 N.ar    1  UNL1       -0.2915
     35 C         139.1836  140.4823  167.1345 C.3     1  UNL1        0.1402
     36 C         139.7622  140.0493  165.8200 C.3     1  UNL1        0.1335
     37 O         140.0721  139.7276  164.3881 O.3     1  UNL1       -0.3806
     38 H         139.3315  140.0054  163.8267 H       1  UNL1        0.2108
@<TRIPOS>BOND
     1    23    24    2
     2    24    25   ar
     3    25    26   ar
     4    26    27   ar
     5    27    28   ar
     6    28    29   ar
     7    29    30   ar
     8    30    31    1
     9    30    32   ar
    10    32    33   ar
    11    33    34   ar
    12    34    35    1
    13    35    36    1
    14    36    37    1
    15    36    22    1
    16    22     1    1
    17     1     2    1
    18     2     3    1
    19     3     4    1
    20     4     9    1
    21     9    11    1
    22    11    12    1
    23    12    13    2
    24    13    14    1
    25    14    15   ar
    26    15    16   ar
    27    16    17    1
    28    16    18   ar
    29    18    19   ar
    30    19    20   ar
    31    20    21    1
    32     4     5    1
    33     5     6    1
    34     4     7    1
    35     7     8    1
    36    34    24   ar
    37     6     1    1
    38    33    27   ar
    39     8     1    1
    40    36    32    1
    41    20    14   ar
    42    37    38    1
    43     9    10    1
@<TRIPOS>MOLECULE
*****
 38 43 0 0 0
SMALL
GASTEIGER

@<TRIPOS>ATOM
      1 C         138.4731  139.0341  164.5593 C.3     1  UNL1        0.0955
      2 C         137.8542  140.3803  164.3249 C.3     1  UNL1        0.0287
      3 C         137.6113  140.8605  162.9247 C.3     1  UNL1        0.0193
      4 C         137.9873  139.9946  161.7590 C.3     1  UNL1        0.0700
      5 C         138.6061  138.6485  161.9935 C.3     1  UNL1        0.0193
      6 C         138.8490  138.1682  163.3936 C.3     1  UNL1        0.0287
      7 C         138.1397  139.6885  162.5081 C.3     1  UNL1        0.1562
      8 O         138.3593  139.2543  163.7741 O.3     1  UNL1       -0.3571
      9 N         137.7444  140.4748  160.3589 N.3     1  UNL1       -0.2939
     10 H         136.8223  140.9108  160.3529 H       1  UNL1        0.1235
     11 C         138.6899  141.4528  159.7269 C.3     1  UNL1        0.0954
     12 C         139.8668  141.9664  160.5023 C.2     1  UNL1       -0.0090
     13 C         139.8101  143.3223  161.1413 C.2     1  UNL1       -0.0009
     14 C         140.9870  143.8358  161.9167 C.ar    1  UNL1        0.0294
     15 C         142.3654  143.3294  161.6108 C.ar    1  UNL1        0.0319
     16 C         143.5423  143.8429  162.3862 C.ar    1  UNL1        0.1403
     17 F         144.9207  143.3366  162.0803 F       1  UNL1       -0.2042
     18 C         143.3407  144.8628  163.4676 C.ar    1  UNL1        0.0319
     19 C         141.9623  145.3691  163.7734 C.ar    1  UNL1        0.0319
     20 C         140.7854  144.8556  162.9980 C.ar    1  UNL1        0.1402
     21 F         139.4070  145.3620  163.3039 F       1  UNL1       -0.2042
     22 C         138.7159  138.5539  165.9595 C.3     1  UNL1        0.0604
     23 O         143.0143  140.8444  164.3594 O.2     1  UNL1       -0.2670
     24 C         142.6409  141.2183  165.7633 C.ar    1  UNL1        0.2611
     25 C         143.5001  142.1723  166.5391 C.ar    1  UNL1        0.0623
     26 C         143.1267  142.5462  167.9429 C.ar    1  UNL1        0.0254
     27 C         141.8943  141.9661  168.5710 C.ar    1  UNL1        0.0972
     28 N         141.2863  142.1579  169.9363 N.ar    1  UNL1       -0.2400
     29 C         140.0313  141.5009  170.4294 C.ar    1  UNL1        0.1282
     30 C         139.2738  140.5646  169.5353 C.ar    1  UNL1        0.1588
     31 F         138.0188  139.9076  170.0284 F       1  UNL1       -0.2027
     32 C         139.7713  140.2853  168.1480 C.ar    1  UNL1        0.0500
     33 C         141.0352  141.0122  167.7953 C.ar    1  UNL1        0.0806
     34 N         141.4085  140.6383  166.3914 N.ar    1  UNL1       -0.2915
     35 C         140.3754  139.6804  165.8766 C.3     1  UNL1        0.1402
     36 C         139.3635  139.4622  166.9622 C.3     1  UNL1        0.1335
     37 O         138.2163  139.0542  167.8382 O.3     1  UNL1       -0.3806
     38 H         137.6455  138.4355  167.3562 H       1  UNL1        0.2108
@<TRIPOS>BOND
     1    23    24    2
     2    24    25   ar
     3    25    26   ar
     4    26    27   ar
     5    27    28   ar
     6    28    29   ar
     7    29    30   ar
     8    30    31    1
     9    30    32   ar
    10    32    33   ar
    11    33    34   ar
    12    34    35    1
    13    35    36    1
    14    36    37    1
    15    36    22    1
    16    22     1    1
    17     1     2    1
    18     2     3    1
    19     3     4    1
    20     4     9    1
    21     9    11    1
    22    11    12    1
    23    12    13    2
    24    13    14    1
    25    14    15   ar
    26    15    16   ar
    27    16    17    1
    28    16    18   ar
    29    18    19   ar
    30    19    20   ar
    31    20    21    1
    32     4     5    1
    33     5     6    1
    34     4     7    1
    35     7     8    1
    36    34    24   ar
    37     6     1    1
    38    33    27   ar
    39     8     1    1
    40    36    32    1
    41    20    14   ar
    42    37    38    1
    43     9    10    1
@<TRIPOS>MOLECULE
*****
 38 43 0 0 0
SMALL
GASTEIGER

@<TRIPOS>ATOM
      1 C         138.5699  138.3540  163.3369 C.3     1  UNL1        0.0955
      2 C         138.9078  137.3189  164.3686 C.3     1  UNL1        0.0287
      3 C         138.9314  137.6885  165.8222 C.3     1  UNL1        0.0193
      4 C         138.6171  139.0932  166.2441 C.3     1  UNL1        0.0700
      5 C         138.2792  140.1283  165.2124 C.3     1  UNL1        0.0193
      6 C         138.2556  139.7587  163.7588 C.3     1  UNL1        0.0287
      7 C         138.5915  138.9381  165.4358 C.3     1  UNL1        0.1562
      8 O         138.5702  138.6039  164.1215 O.3     1  UNL1       -0.3571
      9 N         138.6407  139.4628  167.6977 N.3     1  UNL1       -0.2939
     10 H         138.4406  138.6107  168.2214 H       1  UNL1        0.1235
     11 C         139.8778  140.0606  168.2994 C.3     1  UNL1        0.0954
     12 C         140.8821  140.7473  167.4220 C.2     1  UNL1       -0.0090
     13 C         142.0408  139.9763  166.8626 C.2     1  UNL1       -0.0009
     14 C         143.0451  140.6631  165.9852 C.ar    1  UNL1        0.0294
     15 C         143.2994  142.1327  166.1444 C.ar    1  UNL1        0.0319
     16 C         144.3037  142.8195  165.2670 C.ar    1  UNL1        0.1403
     17 F         144.5580  144.2892  165.4262 F       1  UNL1       -0.2042
     18 C         145.0537  142.0364  164.2305 C.ar    1  UNL1        0.0319
     19 C         144.7994  140.5668  164.0713 C.ar    1  UNL1        0.0319
     20 C         143.7951  139.8800  164.9487 C.ar    1  UNL1        0.1402
     21 F         143.5408  138.4104  164.7895 F       1  UNL1       -0.2042
     22 C         138.5463  137.9844  161.8834 C.3     1  UNL1        0.0604
     23 O         137.1517  140.5497  157.6695 O.2     1  UNL1       -0.2670
     24 C         138.6354  140.3524  157.7689 C.ar    1  UNL1        0.2611
     25 C         139.5367  140.8871  156.6959 C.ar    1  UNL1        0.0623
     26 C         141.0204  140.6898  156.7953 C.ar    1  UNL1        0.0254
     27 C         141.6026  139.9576  157.9679 C.ar    1  UNL1        0.0972
     28 N         143.0267  139.6177  158.3239 N.ar    1  UNL1       -0.2400
     29 C         143.4619  138.8692  159.5488 C.ar    1  UNL1        0.1282
     30 C         142.4408  138.3935  160.5392 C.ar    1  UNL1        0.1588
     31 F         142.8759  137.6450  161.7641 F       1  UNL1       -0.2027
     32 C         140.9845  138.6662  160.3048 C.ar    1  UNL1        0.0500
     33 C         140.7013  139.4229  159.0409 C.ar    1  UNL1        0.0806
     34 N         139.2176  139.6202  158.9415 N.ar    1  UNL1       -0.2915
     35 C         138.5840  138.9856  160.1438 C.3     1  UNL1        0.1402
     36 C         139.6759  138.3959  160.9864 C.3     1  UNL1        0.1335
     37 O         140.5318  137.7203  162.0165 O.3     1  UNL1       -0.3806
     38 H         139.9689  137.3657  162.7224 H       1  UNL1        0.2108
@<TRIPOS>BOND
     1    23    24    2
     2    24    25   ar
     3    25    26   ar
     4    26    27   ar
     5    27    28   ar
     6    28    29   ar
     7    29    30   ar
     8    30    31    1
     9    30    32   ar
    10    32    33   ar
    11    33    34   ar
    12    34    35    1
    13    35    36    1
    14    36    37    1
    15    36    22    1
    16    22     1    1
    17     1     2    1
    18     2     3    1
    19     3     4    1
    20     4     9    1
    21     9    11    1
    22    11    12    1
    23    12    13    2
    24    13    14    1
    25    14    15   ar
    26    15    16   ar
    27    16    17    1
    28    16    18   ar
    29    18    19   ar
    30    19    20   ar
    31    20    21    1
    32     4     5    1
    33     5     6    1
    34     4     7    1
    35     7     8    1
    36    34    24   ar
    37     6     1    1
    38    33    27   ar
    39     8     1    1
    40    36    32    1
    41    20    14   ar
    42    37    38    1
    43     9    10    1
@<TRIPOS>MOLECULE
*****
 38 43 0 0 0
SMALL
GASTEIGER

@<TRIPOS>ATOM
      1 C         140.0900  138.3642  164.6642 C.3     1  UNL1        0.0955
      2 C         138.8394  138.7467  165.3990 C.3     1  UNL1        0.0287
      3 C         138.9300  139.5102  166.6869 C.3     1  UNL1        0.0193
      4 C         140.2712  139.8913  167.2401 C.3     1  UNL1        0.0700
      5 C         141.5217  139.5089  166.5054 C.3     1  UNL1        0.0193
      6 C         141.4311  138.7453  165.2174 C.3     1  UNL1        0.0287
      7 C         140.2719  139.4729  166.5309 C.3     1  UNL1        0.1562
      8 O         140.1899  138.7825  165.3663 O.3     1  UNL1       -0.3571
      9 N         140.3618  140.6549  168.5281 N.3     1  UNL1       -0.2939
     10 H         141.2016  140.3279  169.0058 H       1  UNL1        0.1235
     11 C         140.4304  142.1531  168.5084 C.3     1  UNL1        0.0954
     12 C         140.7217  142.8738  167.2254 C.2     1  UNL1       -0.0090
     13 C         139.6070  143.1892  166.2725 C.2     1  UNL1       -0.0009
     14 C         139.8983  143.9098  164.9897 C.ar    1  UNL1        0.0294
     15 C         141.3182  144.1541  164.5723 C.ar    1  UNL1        0.0319
     16 C         141.6095  144.8747  163.2894 C.ar    1  UNL1        0.1403
     17 F         143.0294  145.1189  162.8721 F       1  UNL1       -0.2042
     18 C         140.4808  145.3511  162.4239 C.ar    1  UNL1        0.0319
     19 C         139.0610  145.1069  162.8413 C.ar    1  UNL1        0.0319
     20 C         138.7696  144.3862  164.1242 C.ar    1  UNL1        0.1402
     21 F         137.3497  144.1420  164.5415 F       1  UNL1       -0.2042
     22 C         139.9993  137.6007  163.3763 C.3     1  UNL1        0.0604
     23 O         137.3512  141.7435  161.9247 O.2     1  UNL1       -0.2670
     24 C         138.4542  141.3915  160.9710 C.ar    1  UNL1        0.2611
     25 C         138.6810  142.2264  159.7457 C.ar    1  UNL1        0.0623
     26 C         139.7840  141.8745  158.7919 C.ar    1  UNL1        0.0254
     27 C         140.6601  140.6877  159.0635 C.ar    1  UNL1        0.0972
     28 N         141.8207  140.1088  158.2966 N.ar    1  UNL1       -0.2400
     29 C         142.6118  138.8994  158.6982 C.ar    1  UNL1        0.1282
     30 C         142.2668  138.1619  159.9580 C.ar    1  UNL1        0.1588
     31 F         143.0579  136.9525  160.3597 F       1  UNL1       -0.2027
     32 C         141.1307  138.6340  160.8162 C.ar    1  UNL1        0.0500
     33 C         140.4333  139.8528  160.2889 C.ar    1  UNL1        0.0806
     34 N         139.3303  140.2048  161.2426 N.ar    1  UNL1       -0.2915
     35 C         139.3461  139.2034  162.3593 C.3     1  UNL1        0.1402
     36 C         140.4588  138.2326  162.0958 C.3     1  UNL1        0.1335
     37 O         141.4754  137.1297  162.0999 O.3     1  UNL1       -0.3806
     38 H         141.3478  136.5752  162.8855 H       1  UNL1        0.2108
@<TRIPOS>BOND
     1    23    24    2
     2    24    25   ar
     3    25    26   ar
     4    26    27   ar
     5    27    28   ar
     6    28    29   ar
     7    29    30   ar
     8    30    31    1
     9    30    32   ar
    10    32    33   ar
    11    33    34   ar
    12    34    35    1
    13    35    36    1
    14    36    37    1
    15    36    22    1
    16    22     1    1
    17     1     2    1
    18     2     3    1
    19     3     4    1
    20     4     9    1
    21     9    11    1
    22    11    12    1
    23    12    13    2
    24    13    14    1
    25    14    15   ar
    26    15    16   ar
    27    16    17    1
    28    16    18   ar
    29    18    19   ar
    30    19    20   ar
    31    20    21    1
    32     4     5    1
    33     5     6    1
    34     4     7    1
    35     7     8    1
    36    34    24   ar
    37     6     1    1
    38    33    27   ar
    39     8     1    1
    40    36    32    1
    41    20    14   ar
    42    37    38    1
    43     9    10    1
@<TRIPOS>MOLECULE
*****
 38 43 0 0 0
SMALL
GASTEIGER

@<TRIPOS>ATOM
      1 C         139.7126  138.2699  164.4557 C.3     1  UNL1        0.0955
      2 C         141.1265  138.4834  164.9089 C.3     1  UNL1        0.0287
      3 C         141.4012  139.2100  166.1922 C.3     1  UNL1        0.0193
      4 C         140.2620  139.7231  167.0222 C.3     1  UNL1        0.0700
      5 C         138.8481  139.5096  166.5689 C.3     1  UNL1        0.0193
      6 C         138.5734  138.7830  165.2857 C.3     1  UNL1        0.0287
      7 C         140.0618  139.3308  166.3263 C.3     1  UNL1        0.1562
      8 O         139.8135  138.6738  165.1661 O.3     1  UNL1       -0.3571
      9 N         140.5366  140.4496  168.3054 N.3     1  UNL1       -0.2939
     10 H         141.3384  139.9908  168.7378 H       1  UNL1        0.1235
     11 C         140.8372  141.9190  168.2857 C.3     1  UNL1        0.0954
     12 C         140.3393  142.7714  167.1562 C.2     1  UNL1       -0.0090
     13 C         141.1672  142.9311  165.9156 C.2     1  UNL1       -0.0009
     14 C         140.6692  143.7834  164.7862 C.ar    1  UNL1        0.0294
     15 C         139.2140  143.7716  164.4228 C.ar    1  UNL1        0.0319
     16 C         138.7160  144.6240  163.2934 C.ar    1  UNL1        0.1403
     17 F         137.2607  144.6122  162.9301 F       1  UNL1       -0.2042
     18 C         139.6734  145.4880  162.5273 C.ar    1  UNL1        0.0319
     19 C         141.1286  145.4998  162.8907 C.ar    1  UNL1        0.0319
     20 C         141.6266  144.6474  164.0201 C.ar    1  UNL1        0.1402
     21 F         143.0819  144.6592  164.3835 F       1  UNL1       -0.2042
     22 C         139.4380  137.5433  163.1725 C.3     1  UNL1        0.0604
     23 O         144.0746  137.8370  161.0050 O.2     1  UNL1       -0.2670
     24 C         143.0086  138.5175  160.1984 C.ar    1  UNL1        0.2611
     25 C         143.3609  139.1877  158.9036 C.ar    1  UNL1        0.0623
     26 C         142.2949  139.8683  158.0970 C.ar    1  UNL1        0.0254
     27 C         140.8767  139.8786  158.5853 C.ar    1  UNL1        0.0972
     28 N         139.6236  140.4728  157.9960 N.ar    1  UNL1       -0.2400
     29 C         138.2562  140.4016  158.6085 C.ar    1  UNL1        0.1282
     30 C         138.0558  139.6933  159.9155 C.ar    1  UNL1        0.1588
     31 F         136.6884  139.6221  160.5279 F       1  UNL1       -0.2027
     32 C         139.2228  139.0563  160.6100 C.ar    1  UNL1        0.0500
     33 C         140.5244  139.2084  159.8801 C.ar    1  UNL1        0.0806
     34 N         141.5904  138.5279  160.6867 N.ar    1  UNL1       -0.2915
     35 C         140.9476  137.9552  161.9151 C.3     1  UNL1        0.1402
     36 C         139.4843  138.2818  161.8677 C.3     1  UNL1        0.1335
     37 O         138.0114  138.4541  162.0930 O.3     1  UNL1       -0.3806
     38 H         137.7598  138.0274  162.9271 H       1  UNL1        0.2108
@<TRIPOS>BOND
     1    23    24    2
     2    24    25   ar
     3    25    26   ar
     4    26    27   ar
     5    27    28   ar
     6    28    29   ar
     7    29    30   ar
     8    30    31    1
     9    30    32   ar
    10    32    33   ar
    11    33    34   ar
    12    34    35    1
    13    35    36    1
    14    36    37    1
    15    36    22    1
    16    22     1    1
    17     1     2    1
    18     2     3    1
    19     3     4    1
    20     4     9    1
    21     9    11    1
    22    11    12    1
    23    12    13    2
    24    13    14    1
    25    14    15   ar
    26    15    16   ar
    27    16    17    1
    28    16    18   ar
    29    18    19   ar
    30    19    20   ar
    31    20    21    1
    32     4     5    1
    33     5     6    1
    34     4     7    1
    35     7     8    1
    36    34    24   ar
    37     6     1    1
    38    33    27   ar
    39     8     1    1
    40    36    32    1
    41    20    14   ar
    42    37    38    1
    43     9    10    1
@<TRIPOS>MOLECULE
*****
 38 43 0 0 0
SMALL
GASTEIGER

@<TRIPOS>ATOM
      1 C         138.7713  138.9728  164.1659 C.3     1  UNL1        0.0955
      2 C         138.0844  140.2675  163.8463 C.3     1  UNL1        0.0287
      3 C         137.5634  140.5185  162.4622 C.3     1  UNL1        0.0193
      4 C         137.7293  139.4748  161.3977 C.3     1  UNL1        0.0700
      5 C         138.4162  138.1801  161.7173 C.3     1  UNL1        0.0193
      6 C         138.9372  137.9291  163.1014 C.3     1  UNL1        0.0287
      7 C         138.0314  139.2918  162.1416 C.3     1  UNL1        0.1562
      8 O         138.5024  139.0649  163.3931 O.3     1  UNL1       -0.3571
      9 N         137.2084  139.7257  160.0137 N.3     1  UNL1       -0.2939
     10 H         136.3820  140.3154  160.1125 H       1  UNL1        0.1235
     11 C         138.0869  140.3797  158.9888 C.3     1  UNL1        0.0954
     12 C         139.2873  141.1675  159.4229 C.2     1  UNL1       -0.0090
     13 C         140.6228  140.4951  159.5422 C.2     1  UNL1       -0.0009
     14 C         141.8232  141.2830  159.9763 C.ar    1  UNL1        0.0294
     15 C         142.9185  141.5822  158.9961 C.ar    1  UNL1        0.0319
     16 C         144.1188  142.3701  159.4302 C.ar    1  UNL1        0.1403
     17 F         145.2141  142.6692  158.4500 F       1  UNL1       -0.2042
     18 C         144.2237  142.8588  160.8446 C.ar    1  UNL1        0.0319
     19 C         143.1284  142.5595  161.8246 C.ar    1  UNL1        0.0319
     20 C         141.9281  141.7716  161.3905 C.ar    1  UNL1        0.1402
     21 F         140.8328  141.4725  162.3707 F       1  UNL1       -0.2042
     22 C         139.2923  138.7219  165.5499 C.3     1  UNL1        0.0604
     23 O         138.0981  140.0986  170.3417 O.2     1  UNL1       -0.2670
     24 C         139.3449  140.7623  169.8368 C.ar    1  UNL1        0.2611
     25 C         140.0962  141.7159  170.7177 C.ar    1  UNL1        0.0623
     26 C         141.3430  142.3797  170.2128 C.ar    1  UNL1        0.0254
     27 C         141.8385  142.0898  168.8271 C.ar    1  UNL1        0.0972
     28 N         143.0367  142.6004  168.0694 N.ar    1  UNL1       -0.2400
     29 C         143.4089  142.2145  166.6685 C.ar    1  UNL1        0.1282
     30 C         142.5564  141.2436  165.9065 C.ar    1  UNL1        0.1588
     31 F         142.9286  140.8577  164.5056 F       1  UNL1       -0.2027
     32 C         141.3319  140.6585  166.5455 C.ar    1  UNL1        0.0500
     33 C         141.0871  141.1362  167.9461 C.ar    1  UNL1        0.0806
     34 N         139.8403  140.4725  168.4510 N.ar    1  UNL1       -0.2915
     35 C         139.3145  139.5846  167.3624 C.3     1  UNL1        0.1402
     36 C         140.2364  139.6995  166.1846 C.3     1  UNL1        0.1335
     37 O         140.9609  139.6102  164.8743 O.3     1  UNL1       -0.3806
     38 H         140.4918  138.9973  164.2866 H       1  UNL1        0.2108
@<TRIPOS>BOND
     1    23    24    2
     2    24    25   ar
     3    25    26   ar
     4    26    27   ar
     5    27    28   ar
     6    28    29   ar
     7    29    30   ar
     8    30    31    1
     9    30    32   ar
    10    32    33   ar
    11    33    34   ar
    12    34    35    1
    13    35    36    1
    14    36    37    1
    15    36    22    1
    16    22     1    1
    17     1     2    1
    18     2     3    1
    19     3     4    1
    20     4     9    1
    21     9    11    1
    22    11    12    1
    23    12    13    2
    24    13    14    1
    25    14    15   ar
    26    15    16   ar
    27    16    17    1
    28    16    18   ar
    29    18    19   ar
    30    19    20   ar
    31    20    21    1
    32     4     5    1
    33     5     6    1
    34     4     7    1
    35     7     8    1
    36    34    24   ar
    37     6     1    1
    38    33    27   ar
    39     8     1    1
    40    36    32    1
    41    20    14   ar
    42    37    38    1
    43     9    10    1
@<TRIPOS>MOLECULE
*****
 38 43 0 0 0
SMALL
GASTEIGER

@<TRIPOS>ATOM
      1 C         138.4896  138.6595  162.9321 C.3     1  UNL1        0.0955
      2 C         138.0854  140.0091  163.4474 C.3     1  UNL1        0.0287
      3 C         138.1254  140.2925  164.9199 C.3     1  UNL1        0.0193
      4 C         138.5695  139.2264  165.8770 C.3     1  UNL1        0.0700
      5 C         138.9737  137.8769  165.3618 C.3     1  UNL1        0.0193
      6 C         138.9337  137.5934  163.8893 C.3     1  UNL1        0.0287
      7 C         138.5641  139.0242  165.0788 C.3     1  UNL1        0.1562
      8 O         138.5280  138.7679  163.7474 O.3     1  UNL1       -0.3571
      9 N         138.6095  139.5098  167.3495 N.3     1  UNL1       -0.2939
     10 H         138.4110  138.6292  167.8244 H       1  UNL1        0.1235
     11 C         139.8554  140.0664  167.9725 C.3     1  UNL1        0.0954
     12 C         140.8754  140.7599  167.1189 C.2     1  UNL1       -0.0090
     13 C         142.1096  140.0283  166.6812 C.2     1  UNL1       -0.0009
     14 C         143.1296  140.7219  165.8276 C.ar    1  UNL1        0.0294
     15 C         143.3252  142.2042  165.9478 C.ar    1  UNL1        0.0319
     16 C         144.3452  142.8978  165.0942 C.ar    1  UNL1        0.1403
     17 F         144.5408  144.3801  165.2145 F       1  UNL1       -0.2042
     18 C         145.1695  142.1089  164.1204 C.ar    1  UNL1        0.0319
     19 C         144.9738  140.6267  164.0002 C.ar    1  UNL1        0.0319
     20 C         143.9538  139.9331  164.8538 C.ar    1  UNL1        0.1402
     21 F         143.7582  138.4508  164.7335 F       1  UNL1       -0.2042
     22 C         138.4496  138.3761  161.4597 C.3     1  UNL1        0.0604
     23 O         143.5488  137.9130  161.7156 O.2     1  UNL1       -0.2670
     24 C         143.1037  138.9086  160.6858 C.ar    1  UNL1        0.2611
     25 C         144.1210  139.6436  159.8642 C.ar    1  UNL1        0.0623
     26 C         143.6758  140.6392  158.8343 C.ar    1  UNL1        0.0254
     27 C         142.2135  140.8999  158.6260 C.ar    1  UNL1        0.0972
     28 N         141.4902  141.8256  157.6825 N.ar    1  UNL1       -0.2400
     29 C         140.0013  141.9804  157.5871 C.ar    1  UNL1        0.1282
     30 C         139.1047  141.1737  158.4789 C.ar    1  UNL1        0.1588
     31 F         137.6158  141.3285  158.3835 F       1  UNL1       -0.2027
     32 C         139.6971  140.2122  159.4661 C.ar    1  UNL1        0.0500
     33 C         141.1962  140.1649  159.4476 C.ar    1  UNL1        0.0806
     34 N         141.6413  139.1693  160.4775 N.ar    1  UNL1       -0.2915
     35 C         140.4173  138.6013  161.1325 C.3     1  UNL1        0.1402
     36 C         139.2156  139.2458  160.5074 C.3     1  UNL1        0.1335
     37 O         137.8539  139.7085  160.0815 O.3     1  UNL1       -0.3806
     38 H         137.1780  139.2454  160.6007 H       1  UNL1        0.2108
@<TRIPOS>BOND
     1    23    24    2
     2    24    25   ar
     3    25    26   ar
     4    26    27   ar
     5    27    28   ar
     6    28    29   ar
     7    29    30   ar
     8    30    31    1
     9    30    32   ar
    10    32    33   ar
    11    33    34   ar
    12    34    35    1
    13    35    36    1
    14    36    37    1
    15    36    22    1
    16    22     1    1
    17     1     2    1
    18     2     3    1
    19     3     4    1
    20     4     9    1
    21     9    11    1
    22    11    12    1
    23    12    13    2
    24    13    14    1
    25    14    15   ar
    26    15    16   ar
    27    16    17    1
    28    16    18   ar
    29    18    19   ar
    30    19    20   ar
    31    20    21    1
    32     4     5    1
    33     5     6    1
    34     4     7    1
    35     7     8    1
    36    34    24   ar
    37     6     1    1
    38    33    27   ar
    39     8     1    1
    40    36    32    1
    41    20    14   ar
    42    37    38    1
    43     9    10    1
@<TRIPOS>MOLECULE
*****
 38 43 0 0 0
SMALL
GASTEIGER

@<TRIPOS>ATOM
      1 C         143.4780  140.6581  159.6689 C.3     1  UNL1        0.0955
      2 C         144.1834  141.8741  160.1925 C.3     1  UNL1        0.0287
      3 C         143.9460  143.2112  159.5554 C.3     1  UNL1        0.0193
      4 C         143.0034  143.3324  158.3949 C.3     1  UNL1        0.0700
      5 C         142.2982  142.1164  157.8714 C.3     1  UNL1        0.0193
      6 C         142.5355  140.7793  158.5084 C.3     1  UNL1        0.0287
      7 C         143.1015  142.5785  158.7112 C.3     1  UNL1        0.1562
      8 O         143.3160  141.3695  159.2872 O.3     1  UNL1       -0.3571
      9 N         142.7661  144.6695  157.7578 N.3     1  UNL1       -0.2939
     10 H         142.4465  144.4896  156.8060 H       1  UNL1        0.1235
     11 C         141.7880  145.6284  158.3691 C.3     1  UNL1        0.0954
     12 C         140.7230  145.1237  159.2971 C.2     1  UNL1       -0.0090
     13 C         140.9969  145.0218  160.7684 C.2     1  UNL1       -0.0009
     14 C         139.9319  144.5171  161.6963 C.ar    1  UNL1        0.0294
     15 C         139.7521  145.1477  163.0454 C.ar    1  UNL1        0.0319
     16 C         138.6872  144.6430  163.9733 C.ar    1  UNL1        0.1403
     17 F         138.5074  145.2737  165.3224 F       1  UNL1       -0.2042
     18 C         137.8019  143.5076  163.5521 C.ar    1  UNL1        0.0319
     19 C         137.9818  142.8770  162.2031 C.ar    1  UNL1        0.0319
     20 C         139.0468  143.3817  161.2752 C.ar    1  UNL1        0.1402
     21 F         139.2265  142.7511  159.9261 F       1  UNL1       -0.2042
     22 C         143.7154  139.3210  160.3060 C.3     1  UNL1        0.0604
     23 O         138.8572  137.8363  160.9960 O.2     1  UNL1       -0.2670
     24 C         139.6193  137.9571  162.2823 C.ar    1  UNL1        0.2611
     25 C         138.9429  137.6533  163.5861 C.ar    1  UNL1        0.0623
     26 C         139.7051  137.7741  164.8724 C.ar    1  UNL1        0.0254
     27 C         141.1436  138.1987  164.8549 C.ar    1  UNL1        0.0972
     28 N         142.1370  138.4014  165.9695 N.ar    1  UNL1       -0.2400
     29 C         143.5625  138.8347  165.7956 C.ar    1  UNL1        0.1282
     30 C         144.1023  139.1039  164.4223 C.ar    1  UNL1        0.1588
     31 F         145.5278  139.5373  164.2485 F       1  UNL1       -0.2027
     32 C         143.2167  138.9398  163.2228 C.ar    1  UNL1        0.0500
     33 C         141.8199  138.5025  163.5510 C.ar    1  UNL1        0.0806
     34 N         141.0578  138.3817  162.2647 N.ar    1  UNL1       -0.2915
     35 C         141.9836  138.7444  161.1416 C.3     1  UNL1        0.1402
     36 C         143.3179  139.0893  161.7337 C.3     1  UNL1        0.1335
     37 O         144.7353  139.4827  162.0274 O.3     1  UNL1       -0.3806
     38 H         145.1937  139.6843  161.1967 H       1  UNL1        0.2108
@<TRIPOS>BOND
     1    23    24    2
     2    24    25   ar
     3    25    26   ar
     4    26    27   ar
     5    27    28   ar
     6    28    29   ar
     7    29    30   ar
     8    30    31    1
     9    30    32   ar
    10    32    33   ar
    11    33    34   ar
    12    34    35    1
    13    35    36    1
    14    36    37    1
    15    36    22    1
    16    22     1    1
    17     1     2    1
    18     2     3    1
    19     3     4    1
    20     4     9    1
    21     9    11    1
    22    11    12    1
    23    12    13    2
    24    13    14    1
    25    14    15   ar
    26    15    16   ar
    27    16    17    1
    28    16    18   ar
    29    18    19   ar
    30    19    20   ar
    31    20    21    1
    32     4     5    1
    33     5     6    1
    34     4     7    1
    35     7     8    1
    36    34    24   ar
    37     6     1    1
    38    33    27   ar
    39     8     1    1
    40    36    32    1
    41    20    14   ar
    42    37    38    1
    43     9    10    1
@<TRIPOS>MOLECULE
*****
 38 43 0 0 0
SMALL
GASTEIGER

@<TRIPOS>ATOM
      1 C         144.1062  141.5002  162.4755 C.3     1  UNL1        0.0955
      2 C         145.2044  141.1760  163.4445 C.3     1  UNL1        0.0287
      3 C         145.0600  140.0122  164.3799 C.3     1  UNL1        0.0193
      4 C         143.8174  139.1727  164.3463 C.3     1  UNL1        0.0700
      5 C         142.7192  139.4969  163.3773 C.3     1  UNL1        0.0193
      6 C         142.8636  140.6606  162.4418 C.3     1  UNL1        0.0287
      7 C         143.8510  139.8004  163.8142 C.3     1  UNL1        0.1562
      8 O         143.9816  140.8526  162.9685 O.3     1  UNL1       -0.3571
      9 N         143.6729  138.0090  165.2816 N.3     1  UNL1       -0.2939
     10 H         144.4789  137.4038  165.1254 H       1  UNL1        0.1235
     11 C         143.5866  138.2421  166.7609 C.3     1  UNL1        0.0954
     12 C         142.5889  139.2188  167.3093 C.2     1  UNL1       -0.0090
     13 C         142.8571  139.9136  168.6113 C.2     1  UNL1       -0.0009
     14 C         141.8594  140.8903  169.1597 C.ar    1  UNL1        0.0294
     15 C         140.4683  140.4361  169.4890 C.ar    1  UNL1        0.0319
     16 C         139.4705  141.4128  170.0374 C.ar    1  UNL1        0.1403
     17 F         138.0794  140.9586  170.3667 F       1  UNL1       -0.2042
     18 C         139.8641  142.8436  170.2564 C.ar    1  UNL1        0.0319
     19 C         141.2551  143.2977  169.9271 C.ar    1  UNL1        0.0319
     20 C         142.2529  142.3211  169.3787 C.ar    1  UNL1        0.1402
     21 F         143.6440  142.7752  169.0493 F       1  UNL1       -0.2042
     22 C         144.2507  142.6639  161.5401 C.3     1  UNL1        0.0604
     23 O         142.9635  143.1314  156.5998 O.2     1  UNL1       -0.2670
     24 C         142.0800  143.9301  157.5117 C.ar    1  UNL1        0.2611
     25 C         140.9606  144.7504  156.9424 C.ar    1  UNL1        0.0623
     26 C         140.0771  145.5490  157.8543 C.ar    1  UNL1        0.0254
     27 C         140.3129  145.5273  159.3355 C.ar    1  UNL1        0.0972
     28 N         139.5988  146.2169  160.4690 N.ar    1  UNL1       -0.2400
     29 C         139.9542  146.0976  161.9214 C.ar    1  UNL1        0.1282
     30 C         141.1065  145.2348  162.3431 C.ar    1  UNL1        0.1588
     31 F         141.4619  145.1155  163.7955 F       1  UNL1       -0.2027
     32 C         141.9034  144.4914  161.3124 C.ar    1  UNL1        0.0500
     33 C         141.4323  144.7070  159.9047 C.ar    1  UNL1        0.0806
     34 N         142.3158  143.9084  158.9928 N.ar    1  UNL1       -0.2915
     35 C         143.3329  143.1992  159.8369 C.3     1  UNL1        0.1402
     36 C         143.0781  143.5595  161.2705 C.3     1  UNL1        0.1335
     37 O         143.0683  143.7326  162.7605 O.3     1  UNL1       -0.3806
     38 H         143.7857  143.2098  163.1514 H       1  UNL1        0.2108
@<TRIPOS>BOND
     1    23    24    2
     2    24    25   ar
     3    25    26   ar
     4    26    27   ar
     5    27    28   ar
     6    28    29   ar
     7    29    30   ar
     8    30    31    1
     9    30    32   ar
    10    32    33   ar
    11    33    34   ar
    12    34    35    1
    13    35    36    1
    14    36    37    1
    15    36    22    1
    16    22     1    1
    17     1     2    1
    18     2     3    1
    19     3     4    1
    20     4     9    1
    21     9    11    1
    22    11    12    1
    23    12    13    2
    24    13    14    1
    25    14    15   ar
    26    15    16   ar
    27    16    17    1
    28    16    18   ar
    29    18    19   ar
    30    19    20   ar
    31    20    21    1
    32     4     5    1
    33     5     6    1
    34     4     7    1
    35     7     8    1
    36    34    24   ar
    37     6     1    1
    38    33    27   ar
    39     8     1    1
    40    36    32    1
    41    20    14   ar
    42    37    38    1
    43     9    10    1
