@<TRIPOS>MOLECULE
*****
 31 34 0 0 0
SMALL
GASTEIGER

@<TRIPOS>ATOM
      1 C         142.2263  140.1752  164.2425 C.ar    1  UNL1        0.1082
      2 C         142.7095  140.4849  162.8567 C.ar    1  UNL1        0.0846
      3 N         142.2483  141.7322  162.1629 N.ar    1  UNL1       -0.2276
      4 C         141.3039  142.6699  162.8548 C.ar    1  UNL1        0.1863
      5 N         140.8207  142.3602  164.2406 N.ar    1  UNL1       -0.2246
      6 C         141.2819  141.1128  164.9345 C.ar    1  UNL1        0.0909
      7 C         140.7986  140.8032  166.3204 C.ar    1  UNL1        0.0243
      8 C         139.5406  140.0101  166.5163 C.ar    1  UNL1        0.0043
      9 C         139.0573  139.7005  167.9021 C.ar    1  UNL1        0.0297
     10 C         139.8321  140.1839  169.0921 C.ar    1  UNL1        0.1406
     11 F         139.3488  139.8742  170.4779 F       1  UNL1       -0.2042
     12 C         141.0901  140.9769  168.8963 C.ar    1  UNL1        0.0364
     13 C         141.5734  141.2866  167.5103 C.ar    1  UNL1        0.0382
     14 BR        142.8314  142.0796  167.3145 Br      1  UNL1       -0.0489
     15 C         140.8427  143.9172  162.1610 C.ar    1  UNL1        0.1465
     16 N         141.0057  144.2263  160.7022 N.ar    1  UNL1       -0.2337
     17 C         140.4013  145.5746  160.4437 C.ar    1  UNL1        0.1066
     18 C         139.8648  146.0988  161.7427 C.ar    1  UNL1        0.0576
     19 S         140.1377  145.0745  162.8040 S.2     1  UNL1       -0.0629
     20 C         142.6874  138.9278  164.9364 C.2     1  UNL1        0.3439
     21 O         144.0374  138.8881  165.5891 O.2     1  UNL1       -0.2448
     22 O         141.7987  137.7202  164.9775 O.3     1  UNL1       -0.4454
     23 C         139.6717  137.6408  163.4877 C.3     1  UNL1        0.0513
     24 C         141.1017  137.2592  163.7319 C.3     1  UNL1        0.2089
     25 C         143.6539  139.5472  162.1647 C.3     1  UNL1        0.1191
     26 N         143.4979  139.2725  160.6983 N.3     1  UNL1       -0.2633
     27 C         142.8998  137.9764  160.2375 C.3     1  UNL1        0.1049
     28 C         142.7439  137.7017  158.7711 C.3     1  UNL1        0.1595
     29 O         143.1860  138.7231  157.7656 O.3     1  UNL1       -0.3508
     30 C         143.7841  140.0192  158.2264 C.3     1  UNL1        0.1595
     31 C         143.9401  140.2939  159.6927 C.3     1  UNL1        0.1049
@<TRIPOS>BOND
     1    23    24    1
     2    24    22    1
     3    22    20    1
     4    20    21    2
     5    20     1    1
     6     1     2   ar
     7     2    25    1
     8    25    26    1
     9    26    27    1
    10    27    28    1
    11    28    29    1
    12    29    30    1
    13    30    31    1
    14     2     3   ar
    15     3     4   ar
    16     4    15    1
    17    15    16   ar
    18    16    17   ar
    19    17    18   ar
    20    18    19   ar
    21     4     5   ar
    22     5     6   ar
    23     6     7    1
    24     7     8   ar
    25     8     9   ar
    26     9    10   ar
    27    10    11    1
    28    10    12   ar
    29    12    13   ar
    30    13    14    1
    31     6     1   ar
    32    13     7   ar
    33    31    26    1
    34    19    15   ar
@<TRIPOS>MOLECULE
*****
 31 34 0 0 0
SMALL
GASTEIGER

@<TRIPOS>ATOM
      1 C         140.2366  139.8097  164.1984 C.ar    1  UNL1        0.1082
      2 C         140.0317  139.9276  162.7172 C.ar    1  UNL1        0.0846
      3 N         139.9699  141.2813  162.0740 N.ar    1  UNL1       -0.2276
      4 C         140.1131  142.5171  162.9120 C.ar    1  UNL1        0.1863
      5 N         140.3181  142.3992  164.3932 N.ar    1  UNL1       -0.2246
      6 C         140.3798  141.0455  165.0365 C.ar    1  UNL1        0.0909
      7 C         140.5848  140.9276  166.5178 C.ar    1  UNL1        0.0243
      8 C         139.4945  140.3695  167.3837 C.ar    1  UNL1        0.0043
      9 C         139.6994  140.2516  168.8649 C.ar    1  UNL1        0.0297
     10 C         140.9946  140.6919  169.4803 C.ar    1  UNL1        0.1406
     11 F         141.1995  140.5740  170.9615 F       1  UNL1       -0.2042
     12 C         142.0849  141.2499  168.6144 C.ar    1  UNL1        0.0364
     13 C         141.8800  141.3678  167.1331 C.ar    1  UNL1        0.0382
     14 BR        142.9703  141.9259  166.2672 Br      1  UNL1       -0.0489
     15 C         140.0514  143.8708  162.2688 C.ar    1  UNL1        0.1465
     16 N         139.4813  145.1142  162.8843 N.ar    1  UNL1       -0.2337
     17 C         139.6265  146.2306  161.8931 C.ar    1  UNL1        0.1066
     18 C         140.2863  145.6772  160.6649 C.ar    1  UNL1        0.0576
     19 S         140.5489  144.2187  160.8972 S.2     1  UNL1       -0.0629
     20 C         140.2984  138.4560  164.8417 C.2     1  UNL1        0.3439
     21 O         139.0737  137.8736  165.4826 O.2     1  UNL1       -0.2448
     22 O         141.5848  137.6847  164.8439 O.3     1  UNL1       -0.4454
     23 C         143.6516  138.1654  166.3431 C.3     1  UNL1        0.0513
     24 C         142.8853  138.3958  165.0743 C.3     1  UNL1        0.2089
     25 C         139.8885  138.6918  161.8791 C.3     1  UNL1        0.1191
     26 N         140.9238  138.3629  160.8448 N.3     1  UNL1       -0.2633
     27 C         140.6332  138.5966  159.3919 C.3     1  UNL1        0.1049
     28 C         141.6686  138.2677  158.3576 C.3     1  UNL1        0.1595
     29 O         142.9946  137.7051  158.7761 O.3     1  UNL1       -0.3508
     30 C         143.2852  137.4714  160.2290 C.3     1  UNL1        0.1595
     31 C         142.2499  137.8003  161.2633 C.3     1  UNL1        0.1049
@<TRIPOS>BOND
     1    23    24    1
     2    24    22    1
     3    22    20    1
     4    20    21    2
     5    20     1    1
     6     1     2   ar
     7     2    25    1
     8    25    26    1
     9    26    27    1
    10    27    28    1
    11    28    29    1
    12    29    30    1
    13    30    31    1
    14     2     3   ar
    15     3     4   ar
    16     4    15    1
    17    15    16   ar
    18    16    17   ar
    19    17    18   ar
    20    18    19   ar
    21     4     5   ar
    22     5     6   ar
    23     6     7    1
    24     7     8   ar
    25     8     9   ar
    26     9    10   ar
    27    10    11    1
    28    10    12   ar
    29    12    13   ar
    30    13    14    1
    31     6     1   ar
    32    13     7   ar
    33    31    26    1
    34    19    15   ar
@<TRIPOS>MOLECULE
*****
 31 34 0 0 0
SMALL
GASTEIGER

@<TRIPOS>ATOM
      1 C         141.4157  139.7179  164.0552 C.ar    1  UNL1        0.1082
      2 C         141.6593  139.9469  162.5930 C.ar    1  UNL1        0.0846
      3 N         141.3526  141.2819  161.9816 N.ar    1  UNL1       -0.2276
      4 C         140.8022  142.3878  162.8324 C.ar    1  UNL1        0.1863
      5 N         140.5586  142.1588  164.2947 N.ar    1  UNL1       -0.2246
      6 C         140.8653  140.8238  164.9061 C.ar    1  UNL1        0.0909
      7 C         140.6216  140.5948  166.3684 C.ar    1  UNL1        0.0243
      8 C         141.6809  140.9489  167.3697 C.ar    1  UNL1        0.0043
      9 C         141.4373  140.7199  168.8319 C.ar    1  UNL1        0.0297
     10 C         140.1344  140.1369  169.2929 C.ar    1  UNL1        0.1406
     11 F         139.8908  139.9079  170.7552 F       1  UNL1       -0.2042
     12 C         139.0751  139.7828  168.2917 C.ar    1  UNL1        0.0364
     13 C         139.3188  140.0118  166.8293 C.ar    1  UNL1        0.0382
     14 BR        138.2595  139.6578  165.8281 Br      1  UNL1       -0.0489
     15 C         140.4954  143.7227  162.2210 C.ar    1  UNL1        0.1465
     16 N         139.9205  144.9091  162.9366 N.ar    1  UNL1       -0.2337
     17 C         139.7795  146.0253  161.9446 C.ar    1  UNL1        0.1066
     18 C         140.2673  145.5288  160.6158 C.ar    1  UNL1        0.0576
     19 S         140.7097  144.1058  160.7867 S.2     1  UNL1       -0.0629
     20 C         141.7224  138.3829  164.6666 C.2     1  UNL1        0.3439
     21 O         140.7103  137.2778  164.6015 O.2     1  UNL1       -0.2448
     22 O         143.0413  138.1531  165.3431 O.3     1  UNL1       -0.4454
     23 C         145.0123  139.3914  164.1891 C.3     1  UNL1        0.0513
     24 C         144.0783  139.2369  165.3527 C.3     1  UNL1        0.2089
     25 C         142.2097  138.8409  161.7421 C.3     1  UNL1        0.1191
     26 N         141.7564  138.6922  160.3200 N.3     1  UNL1       -0.2633
     27 C         142.7662  138.6463  159.2118 C.3     1  UNL1        0.1049
     28 C         142.3128  138.4975  157.7897 C.3     1  UNL1        0.1595
     29 O         140.8496  138.3947  157.4758 O.3     1  UNL1       -0.3508
     30 C         139.8398  138.4406  158.5841 C.3     1  UNL1        0.1595
     31 C         140.2931  138.5894  160.0061 C.3     1  UNL1        0.1049
@<TRIPOS>BOND
     1    23    24    1
     2    24    22    1
     3    22    20    1
     4    20    21    2
     5    20     1    1
     6     1     2   ar
     7     2    25    1
     8    25    26    1
     9    26    27    1
    10    27    28    1
    11    28    29    1
    12    29    30    1
    13    30    31    1
    14     2     3   ar
    15     3     4   ar
    16     4    15    1
    17    15    16   ar
    18    16    17   ar
    19    17    18   ar
    20    18    19   ar
    21     4     5   ar
    22     5     6   ar
    23     6     7    1
    24     7     8   ar
    25     8     9   ar
    26     9    10   ar
    27    10    11    1
    28    10    12   ar
    29    12    13   ar
    30    13    14    1
    31     6     1   ar
    32    13     7   ar
    33    31    26    1
    34    19    15   ar
@<TRIPOS>MOLECULE
*****
 31 34 0 0 0
SMALL
GASTEIGER

@<TRIPOS>ATOM
      1 C         142.1795  141.7207  163.6890 C.ar    1  UNL1        0.1082
      2 C         141.9530  142.6590  164.8371 C.ar    1  UNL1        0.0846
      3 N         141.8682  142.1254  166.2364 N.ar    1  UNL1       -0.2276
      4 C         142.0099  140.6534  166.4877 C.ar    1  UNL1        0.1863
      5 N         142.2364  139.7151  165.3396 N.ar    1  UNL1       -0.2246
      6 C         142.3212  140.2487  163.9403 C.ar    1  UNL1        0.0909
      7 C         142.5477  139.3102  162.7921 C.ar    1  UNL1        0.0243
      8 C         143.9451  138.9615  162.3730 C.ar    1  UNL1        0.0043
      9 C         144.1716  138.0231  161.2250 C.ar    1  UNL1        0.0297
     10 C         143.0007  137.4334  160.4960 C.ar    1  UNL1        0.1406
     11 F         143.2272  136.4950  159.3479 F       1  UNL1       -0.2042
     12 C         141.6033  137.7822  160.9151 C.ar    1  UNL1        0.0364
     13 C         141.3768  138.7206  162.0632 C.ar    1  UNL1        0.0382
     14 BR        139.9794  139.0694  162.4823 Br      1  UNL1       -0.0489
     15 C         141.9251  140.1198  167.8870 C.ar    1  UNL1        0.1465
     16 N         142.9286  139.2246  168.5515 N.ar    1  UNL1       -0.2337
     17 C         142.4457  138.9392  169.9427 C.ar    1  UNL1        0.1066
     18 C         141.1437  139.6581  170.1379 C.ar    1  UNL1        0.0576
     19 S         140.8220  140.3877  168.8674 S.2     1  UNL1       -0.0629
     20 C         142.2642  142.2543  162.2897 C.2     1  UNL1        0.3439
     21 O         141.0361  142.3029  161.4299 O.2     1  UNL1       -0.2448
     22 O         143.5771  142.7392  161.7502 O.3     1  UNL1       -0.4454
     23 C         143.9073  141.3839  159.5584 C.3     1  UNL1        0.0513
     24 C         143.8418  142.7005  160.2743 C.3     1  UNL1        0.2089
     25 C         141.8113  144.1311  164.5859 C.3     1  UNL1        0.1191
     26 N         140.6823  144.6425  163.7410 N.3     1  UNL1       -0.2633
     27 C         140.9454  145.6688  162.6792 C.3     1  UNL1        0.1049
     28 C         139.8164  146.1802  161.8342 C.3     1  UNL1        0.1595
     29 O         138.4244  145.6653  162.0511 O.3     1  UNL1       -0.3508
     30 C         138.1613  144.6389  163.1129 C.3     1  UNL1        0.1595
     31 C         139.2902  144.1276  163.9578 C.3     1  UNL1        0.1049
@<TRIPOS>BOND
     1    23    24    1
     2    24    22    1
     3    22    20    1
     4    20    21    2
     5    20     1    1
     6     1     2   ar
     7     2    25    1
     8    25    26    1
     9    26    27    1
    10    27    28    1
    11    28    29    1
    12    29    30    1
    13    30    31    1
    14     2     3   ar
    15     3     4   ar
    16     4    15    1
    17    15    16   ar
    18    16    17   ar
    19    17    18   ar
    20    18    19   ar
    21     4     5   ar
    22     5     6   ar
    23     6     7    1
    24     7     8   ar
    25     8     9   ar
    26     9    10   ar
    27    10    11    1
    28    10    12   ar
    29    12    13   ar
    30    13    14    1
    31     6     1   ar
    32    13     7   ar
    33    31    26    1
    34    19    15   ar
@<TRIPOS>MOLECULE
*****
 31 34 0 0 0
SMALL
GASTEIGER

@<TRIPOS>ATOM
      1 C         139.6212  142.1324  163.6582 C.ar    1  UNL1        0.1082
      2 C         139.6192  142.0375  162.1613 C.ar    1  UNL1        0.0846
      3 N         140.4869  141.0260  161.4728 N.ar    1  UNL1       -0.2276
      4 C         141.3566  140.1094  162.2813 C.ar    1  UNL1        0.1863
      5 N         141.3585  140.2044  163.7782 N.ar    1  UNL1       -0.2246
      6 C         140.4908  141.2159  164.4667 C.ar    1  UNL1        0.0909
      7 C         140.4927  141.3108  165.9637 C.ar    1  UNL1        0.0243
      8 C         141.4098  142.2773  166.6528 C.ar    1  UNL1        0.0043
      9 C         141.4118  142.3722  168.1497 C.ar    1  UNL1        0.0297
     10 C         140.4967  141.5006  168.9578 C.ar    1  UNL1        0.1406
     11 F         140.4986  141.5956  170.4547 F       1  UNL1       -0.2042
     12 C         139.5796  140.5341  168.2687 C.ar    1  UNL1        0.0364
     13 C         139.5776  140.4392  166.7717 C.ar    1  UNL1        0.0382
     14 BR        138.6605  139.4726  166.0827 Br      1  UNL1       -0.0489
     15 C         142.2243  139.0980  161.5928 C.ar    1  UNL1        0.1465
     16 N         141.9607  138.4760  160.2535 N.ar    1  UNL1       -0.2337
     17 C         143.0814  137.5245  159.9557 C.ar    1  UNL1        0.1066
     18 C         144.0376  137.5584  161.1109 C.ar    1  UNL1        0.0576
     19 S         143.5079  138.5309  162.1227 S.2     1  UNL1       -0.0629
     20 C         138.7535  143.1439  164.3467 C.2     1  UNL1        0.3439
     21 O         137.3232  142.8168  164.6587 O.2     1  UNL1       -0.2448
     22 O         139.3160  144.4824  164.7232 O.3     1  UNL1       -0.4454
     23 C         141.7322  145.0361  163.9450 C.3     1  UNL1        0.0513
     24 C         140.2487  145.1938  163.7884 C.3     1  UNL1        0.2089
     25 C         138.7496  142.9540  161.3527 C.3     1  UNL1        0.1191
     26 N         139.2696  143.5510  160.0787 N.3     1  UNL1       -0.2633
     27 C         140.1589  144.7582  160.1244 C.3     1  UNL1        0.1049
     28 C         140.6790  145.3552  158.8503 C.3     1  UNL1        0.1595
     29 O         140.3098  144.7451  157.5307 O.3     1  UNL1       -0.3508
     30 C         139.4205  143.5380  157.4850 C.3     1  UNL1        0.1595
     31 C         138.9004  142.9409  158.7590 C.3     1  UNL1        0.1049
@<TRIPOS>BOND
     1    23    24    1
     2    24    22    1
     3    22    20    1
     4    20    21    2
     5    20     1    1
     6     1     2   ar
     7     2    25    1
     8    25    26    1
     9    26    27    1
    10    27    28    1
    11    28    29    1
    12    29    30    1
    13    30    31    1
    14     2     3   ar
    15     3     4   ar
    16     4    15    1
    17    15    16   ar
    18    16    17   ar
    19    17    18   ar
    20    18    19   ar
    21     4     5   ar
    22     5     6   ar
    23     6     7    1
    24     7     8   ar
    25     8     9   ar
    26     9    10   ar
    27    10    11    1
    28    10    12   ar
    29    12    13   ar
    30    13    14    1
    31     6     1   ar
    32    13     7   ar
    33    31    26    1
    34    19    15   ar
@<TRIPOS>MOLECULE
*****
 31 34 0 0 0
SMALL
GASTEIGER

@<TRIPOS>ATOM
      1 C         141.8763  143.4555  160.2741 C.ar    1  UNL1        0.1082
      2 C         142.7146  143.5395  159.0331 C.ar    1  UNL1        0.0846
      3 N         142.2598  144.3789  157.8761 N.ar    1  UNL1       -0.2276
      4 C         140.9666  145.1343  157.9602 C.ar    1  UNL1        0.1863
      5 N         140.1284  145.0504  159.2012 N.ar    1  UNL1       -0.2246
      6 C         140.5832  144.2110  160.3582 C.ar    1  UNL1        0.0909
      7 C         139.7449  144.1270  161.5993 C.ar    1  UNL1        0.0243
      8 C         140.0176  145.0470  162.7522 C.ar    1  UNL1        0.0043
      9 C         139.1793  144.9631  163.9932 C.ar    1  UNL1        0.0297
     10 C         138.0682  143.9592  164.0814 C.ar    1  UNL1        0.1406
     11 F         137.2299  143.8753  165.3224 F       1  UNL1       -0.2042
     12 C         137.7954  143.0393  162.9284 C.ar    1  UNL1        0.0364
     13 C         138.6338  143.1232  161.6873 C.ar    1  UNL1        0.0382
     14 BR        138.3610  142.2032  160.5344 Br      1  UNL1       -0.0489
     15 C         140.5118  145.9737  156.8033 C.ar    1  UNL1        0.1465
     16 N         139.4191  147.0009  156.8349 N.ar    1  UNL1       -0.2337
     17 C         139.3018  147.5953  155.4627 C.ar    1  UNL1        0.1066
     18 C         140.3219  146.9355  154.5830 C.ar    1  UNL1        0.0576
     19 S         141.0698  145.9333  155.4115 S.2     1  UNL1       -0.0629
     20 C         142.3312  142.6161  161.4311 C.2     1  UNL1        0.3439
     21 O         141.6893  141.2855  161.6904 O.2     1  UNL1       -0.2448
     22 O         143.4279  143.1074  162.3287 O.3     1  UNL1       -0.4454
     23 C         143.5617  145.0735  164.0219 C.3     1  UNL1        0.0513
     24 C         143.5684  144.5746  162.6073 C.3     1  UNL1        0.2089
     25 C         144.0078  142.7840  158.9490 C.3     1  UNL1        0.1191
     26 N         144.1199  141.5866  158.0526 N.3     1  UNL1       -0.2633
     27 C         145.1710  141.5461  156.9831 C.3     1  UNL1        0.1049
     28 C         145.2831  140.3486  156.0867 C.3     1  UNL1        0.1595
     29 O         144.3442  139.1917  156.2598 O.3     1  UNL1       -0.3508
     30 C         143.2932  139.2322  157.3292 C.3     1  UNL1        0.1595
     31 C         143.1810  140.4296  158.2256 C.3     1  UNL1        0.1049
@<TRIPOS>BOND
     1    23    24    1
     2    24    22    1
     3    22    20    1
     4    20    21    2
     5    20     1    1
     6     1     2   ar
     7     2    25    1
     8    25    26    1
     9    26    27    1
    10    27    28    1
    11    28    29    1
    12    29    30    1
    13    30    31    1
    14     2     3   ar
    15     3     4   ar
    16     4    15    1
    17    15    16   ar
    18    16    17   ar
    19    17    18   ar
    20    18    19   ar
    21     4     5   ar
    22     5     6   ar
    23     6     7    1
    24     7     8   ar
    25     8     9   ar
    26     9    10   ar
    27    10    11    1
    28    10    12   ar
    29    12    13   ar
    30    13    14    1
    31     6     1   ar
    32    13     7   ar
    33    31    26    1
    34    19    15   ar
@<TRIPOS>MOLECULE
*****
 31 34 0 0 0
SMALL
GASTEIGER

@<TRIPOS>ATOM
      1 C         139.0852  141.3071  160.9235 C.ar    1  UNL1        0.1082
      2 C         139.1841  140.6722  159.5681 C.ar    1  UNL1        0.0846
      3 N         139.2948  141.5314  158.3436 N.ar    1  UNL1       -0.2276
      4 C         139.3065  143.0256  158.4745 C.ar    1  UNL1        0.1863
      5 N         139.2075  143.6606  159.8298 N.ar    1  UNL1       -0.2246
      6 C         139.0968  142.8013  161.0543 C.ar    1  UNL1        0.0909
      7 C         138.9979  143.4363  162.4097 C.ar    1  UNL1        0.0243
      8 C         137.6567  143.6192  163.0561 C.ar    1  UNL1        0.0043
      9 C         137.5577  144.2542  164.4115 C.ar    1  UNL1        0.0297
     10 C         138.7999  144.7064  165.1204 C.ar    1  UNL1        0.1406
     11 F         138.7009  145.3414  166.4757 F       1  UNL1       -0.2042
     12 C         140.1411  144.5235  164.4740 C.ar    1  UNL1        0.0364
     13 C         140.2400  143.8885  163.1186 C.ar    1  UNL1        0.0382
     14 BR        141.5812  143.7056  162.4722 Br      1  UNL1       -0.0489
     15 C         139.4171  143.8849  157.2499 C.ar    1  UNL1        0.1465
     16 N         138.7403  143.6367  155.9346 N.ar    1  UNL1       -0.2337
     17 C         139.1289  144.7416  154.9975 C.ar    1  UNL1        0.1066
     18 C         140.0459  145.6727  155.7337 C.ar    1  UNL1        0.0576
     19 S         140.2241  145.1432  157.1258 S.2     1  UNL1       -0.0629
     20 C         138.9745  140.4478  162.1480 C.2     1  UNL1        0.3439
     21 O         137.6499  139.8595  162.5342 O.2     1  UNL1       -0.2448
     22 O         140.1884  140.1770  162.9864 O.3     1  UNL1       -0.4454
     23 C         139.3452  140.9868  165.3066 C.3     1  UNL1        0.0513
     24 C         140.0468  139.9629  164.4642 C.3     1  UNL1        0.2089
     25 C         139.1724  139.1779  159.4373 C.3     1  UNL1        0.1191
     26 N         140.2382  138.4865  158.6398 N.3     1  UNL1       -0.2633
     27 C         141.6529  138.4656  159.1379 C.3     1  UNL1        0.1049
     28 C         142.7188  137.7742  158.3404 C.3     1  UNL1        0.1595
     29 O         142.3698  137.1037  157.0448 O.3     1  UNL1       -0.3508
     30 C         140.9551  137.1246  156.5466 C.3     1  UNL1        0.1595
     31 C         139.8893  137.8159  157.3441 C.3     1  UNL1        0.1049
@<TRIPOS>BOND
     1    23    24    1
     2    24    22    1
     3    22    20    1
     4    20    21    2
     5    20     1    1
     6     1     2   ar
     7     2    25    1
     8    25    26    1
     9    26    27    1
    10    27    28    1
    11    28    29    1
    12    29    30    1
    13    30    31    1
    14     2     3   ar
    15     3     4   ar
    16     4    15    1
    17    15    16   ar
    18    16    17   ar
    19    17    18   ar
    20    18    19   ar
    21     4     5   ar
    22     5     6   ar
    23     6     7    1
    24     7     8   ar
    25     8     9   ar
    26     9    10   ar
    27    10    11    1
    28    10    12   ar
    29    12    13   ar
    30    13    14    1
    31     6     1   ar
    32    13     7   ar
    33    31    26    1
    34    19    15   ar
@<TRIPOS>MOLECULE
*****
 31 34 0 0 0
SMALL
GASTEIGER

@<TRIPOS>ATOM
      1 C         140.0096  141.1687  160.7820 C.ar    1  UNL1        0.1082
      2 C         140.1643  140.3848  159.5125 C.ar    1  UNL1        0.0846
      3 N         139.3558  140.7493  158.3028 N.ar    1  UNL1       -0.2276
      4 C         138.3926  141.8975  158.3625 C.ar    1  UNL1        0.1863
      5 N         138.2379  142.6814  159.6319 N.ar    1  UNL1       -0.2246
      6 C         139.0464  142.3170  160.8417 C.ar    1  UNL1        0.0909
      7 C         138.8917  143.1009  162.1112 C.ar    1  UNL1        0.0243
      8 C         137.8738  142.6837  163.1309 C.ar    1  UNL1        0.0043
      9 C         137.7190  143.4676  164.4004 C.ar    1  UNL1        0.0297
     10 C         138.5822  144.6687  164.6502 C.ar    1  UNL1        0.1406
     11 F         138.4275  145.4525  165.9196 F       1  UNL1       -0.2042
     12 C         139.6001  145.0859  163.6305 C.ar    1  UNL1        0.0364
     13 C         139.7549  144.3019  162.3610 C.ar    1  UNL1        0.0382
     14 BR        140.7728  144.7191  161.3412 Br      1  UNL1       -0.0489
     15 C         137.5840  142.2620  157.1527 C.ar    1  UNL1        0.1465
     16 N         137.6416  143.5661  156.4139 N.ar    1  UNL1       -0.2337
     17 C         136.6691  143.4964  155.2740 C.ar    1  UNL1        0.1066
     18 C         136.0105  142.1492  155.3083 C.ar    1  UNL1        0.0576
     19 S         136.5760  141.3863  156.4694 S.2     1  UNL1       -0.0629
     20 C         140.8181  140.8042  161.9917 C.2     1  UNL1        0.3439
     21 O         142.1315  141.4820  162.2481 O.2     1  UNL1       -0.2448
     22 O         140.3134  139.7620  162.9451 O.3     1  UNL1       -0.4454
     23 C         138.6595  137.9237  162.1480 C.3     1  UNL1        0.0513
     24 C         138.9120  139.2430  162.8157 C.3     1  UNL1        0.2089
     25 C         141.1275  139.2365  159.4527 C.3     1  UNL1        0.1191
     26 N         142.2049  139.2147  158.4092 N.3     1  UNL1       -0.2633
     27 C         143.2396  140.3002  158.3769 C.3     1  UNL1        0.1049
     28 C         144.3170  140.2784  157.3333 C.3     1  UNL1        0.1595
     29 O         144.3595  139.1713  156.3222 O.3     1  UNL1       -0.3508
     30 C         143.3247  138.0859  156.3546 C.3     1  UNL1        0.1595
     31 C         142.2474  138.1076  157.3981 C.3     1  UNL1        0.1049
@<TRIPOS>BOND
     1    23    24    1
     2    24    22    1
     3    22    20    1
     4    20    21    2
     5    20     1    1
     6     1     2   ar
     7     2    25    1
     8    25    26    1
     9    26    27    1
    10    27    28    1
    11    28    29    1
    12    29    30    1
    13    30    31    1
    14     2     3   ar
    15     3     4   ar
    16     4    15    1
    17    15    16   ar
    18    16    17   ar
    19    17    18   ar
    20    18    19   ar
    21     4     5   ar
    22     5     6   ar
    23     6     7    1
    24     7     8   ar
    25     8     9   ar
    26     9    10   ar
    27    10    11    1
    28    10    12   ar
    29    12    13   ar
    30    13    14    1
    31     6     1   ar
    32    13     7   ar
    33    31    26    1
    34    19    15   ar
@<TRIPOS>MOLECULE
*****
 31 34 0 0 0
SMALL
GASTEIGER

@<TRIPOS>ATOM
      1 C         140.5241  141.1539  161.1006 C.ar    1  UNL1        0.1082
      2 C         140.7605  140.3262  159.8722 C.ar    1  UNL1        0.0846
      3 N         139.8555  140.4709  158.6847 N.ar    1  UNL1       -0.2276
      4 C         138.7142  141.4433  158.7256 C.ar    1  UNL1        0.1863
      5 N         138.4778  142.2710  159.9540 N.ar    1  UNL1       -0.2246
      6 C         139.3828  142.1263  161.1415 C.ar    1  UNL1        0.0909
      7 C         139.1463  142.9541  162.3699 C.ar    1  UNL1        0.0243
      8 C         139.8713  144.2550  162.5486 C.ar    1  UNL1        0.0043
      9 C         139.6350  145.0828  163.7769 C.ar    1  UNL1        0.0297
     10 C         138.6735  144.6096  164.8267 C.ar    1  UNL1        0.1406
     11 F         138.4371  145.4374  166.0550 F       1  UNL1       -0.2042
     12 C         137.9485  143.3087  164.6479 C.ar    1  UNL1        0.0364
     13 C         138.1849  142.4809  163.4195 C.ar    1  UNL1        0.0382
     14 BR        137.4599  141.1800  163.2408 Br      1  UNL1       -0.0489
     15 C         137.8092  141.5879  157.5381 C.ar    1  UNL1        0.1465
     16 N         136.7898  140.5878  157.0795 N.ar    1  UNL1       -0.2337
     17 C         136.1153  141.1399  155.8587 C.ar    1  UNL1        0.1066
     18 C         136.7179  142.4813  155.5629 C.ar    1  UNL1        0.0576
     19 S         137.7648  142.7582  156.6008 S.2     1  UNL1       -0.0629
     20 C         141.4291  141.0092  162.2880 C.2     1  UNL1        0.3439
     21 O         142.7284  141.7572  162.3364 O.2     1  UNL1       -0.2448
     22 O         141.0348  140.1166  163.4272 O.3     1  UNL1       -0.4454
     23 C         139.6626  137.9305  163.1301 C.3     1  UNL1        0.0513
     24 C         140.9856  138.6300  163.2328 C.3     1  UNL1        0.2089
     25 C         141.9019  139.3537  159.8312 C.3     1  UNL1        0.1191
     26 N         142.6073  139.0793  158.5363 N.3     1  UNL1       -0.2633
     27 C         143.4646  140.1390  157.9100 C.3     1  UNL1        0.1049
     28 C         144.1700  139.8645  156.6149 C.3     1  UNL1        0.1595
     29 O         144.0182  138.5305  155.9462 O.3     1  UNL1       -0.3508
     30 C         143.1609  137.4708  156.5725 C.3     1  UNL1        0.1595
     31 C         142.4555  137.7452  157.8675 C.3     1  UNL1        0.1049
@<TRIPOS>BOND
     1    23    24    1
     2    24    22    1
     3    22    20    1
     4    20    21    2
     5    20     1    1
     6     1     2   ar
     7     2    25    1
     8    25    26    1
     9    26    27    1
    10    27    28    1
    11    28    29    1
    12    29    30    1
    13    30    31    1
    14     2     3   ar
    15     3     4   ar
    16     4    15    1
    17    15    16   ar
    18    16    17   ar
    19    17    18   ar
    20    18    19   ar
    21     4     5   ar
    22     5     6   ar
    23     6     7    1
    24     7     8   ar
    25     8     9   ar
    26     9    10   ar
    27    10    11    1
    28    10    12   ar
    29    12    13   ar
    30    13    14    1
    31     6     1   ar
    32    13     7   ar
    33    31    26    1
    34    19    15   ar
