@<TRIPOS>MOLECULE
*****
 42 45 0 0 0
SMALL
GASTEIGER

@<TRIPOS>ATOM
      1 C         141.7188  141.6784  164.6421 C.3     1  UNL1        0.0808
      2 C         142.4631  141.9349  163.3653 C.ar    1  UNL1        0.0375
      3 C         141.7569  141.8117  162.0477 C.ar    1  UNL1        0.0023
      4 C         142.5011  142.0682  160.7709 C.ar    1  UNL1        0.0181
      5 C         141.7948  141.9451  159.4534 C.ar    1  UNL1        0.0082
      6 C         142.5392  142.2016  158.1765 C.ar    1  UNL1        0.0347
      7 BR        141.8329  142.0784  156.8590 Br      1  UNL1       -0.0490
      8 C         143.9897  142.5813  158.2173 C.ar    1  UNL1        0.0082
      9 C         144.6960  142.7045  159.5349 C.ar    1  UNL1        0.0197
     10 C         143.9517  142.4480  160.8117 C.ar    1  UNL1        0.0844
     11 N         144.6580  142.5712  162.1292 N.ar    1  UNL1       -0.2119
     12 C         143.9137  142.3146  163.4061 C.ar    1  UNL1        0.2211
     13 O         144.6200  142.4378  164.7236 O.3     1  UNL1       -0.4563
     14 C         144.6812  143.7646  165.4206 C.3     1  UNL1        0.2542
     15 C         142.2525  140.6895  165.6357 C.ar    1  UNL1        0.0245
     16 C         142.5872  139.2940  165.1992 C.ar    1  UNL1        0.0200
     17 C         143.1209  138.3050  166.1927 C.ar    1  UNL1        0.1019
     18 N         143.3199  138.7116  167.6228 N.ar    1  UNL1       -0.2076
     19 C         142.9852  140.1072  168.0593 C.ar    1  UNL1        0.2598
     20 C         142.4515  141.0961  167.0657 C.ar    1  UNL1        0.1879
     21 O         143.1843  140.5138  169.4893 O.3     1  UNL1       -0.4541
     22 C         142.3142  139.9304  170.5629 C.3     1  UNL1        0.2543
     23 O         142.1168  142.4916  167.5022 O.3     1  UNL1       -0.4670
     24 C         141.0028  142.7250  168.4792 C.3     1  UNL1        0.2527
     25 C         140.4408  142.4108  164.9253 C.3     1  UNL1        0.1162
     26 O         141.1801  143.7154  164.8879 O.3     1  UNL1       -0.3820
     27 H         140.5603  144.4432  165.0526 H       1  UNL1        0.2107
     28 C         138.7234  139.0382  163.7312 C.ar    1  UNL1        0.2272
     29 C         139.4627  140.3428  163.6938 C.ar    1  UNL1        0.0559
     30 C         139.7014  141.1062  164.9627 C.ar    1  UNL1        0.0117
     31 C         139.2007  140.5651  166.2690 C.ar    1  UNL1        0.0559
     32 C         138.4614  139.2605  166.3064 C.ar    1  UNL1        0.2272
     33 N         138.2227  138.4971  165.0374 N.ar    1  UNL1       -0.1767
     34 C         137.6954  138.8980  161.3492 C.3     1  UNL1        0.2542
     35 O         138.4847  138.2748  162.4622 O.3     1  UNL1       -0.4561
     36 O         137.9607  138.7193  167.6127 O.3     1  UNL1       -0.4561
     37 C         136.9045  137.6544  167.6279 C.3     1  UNL1        0.2542
     38 C         139.1627  143.1432  165.2085 C.3     1  UNL1        0.0491
     39 C         138.8330  144.3962  164.4525 C.3     1  UNL1        0.0750
     40 N         138.8120  144.3837  162.9527 N.3     1  UNL1       -0.2702
     41 C         138.0099  143.3477  162.2226 C.3     1  UNL1        0.0897
     42 C         139.5933  145.4071  162.1831 C.3     1  UNL1        0.0897
@<TRIPOS>BOND
     1    34    35    1
     2    35    28    1
     3    28    29   ar
     4    29    30   ar
     5    30    25    1
     6    25    26    1
     7    25    38    1
     8    38    39    1
     9    39    40    1
    10    40    41    1
    11    40    42    1
    12    25     1    1
    13     1     2    1
    14     2     3   ar
    15     3     4   ar
    16     4     5   ar
    17     5     6   ar
    18     6     7    1
    19     6     8   ar
    20     8     9   ar
    21     9    10   ar
    22    10    11   ar
    23    11    12   ar
    24    12    13    1
    25    13    14    1
    26     1    15    1
    27    15    16   ar
    28    16    17   ar
    29    17    18   ar
    30    18    19   ar
    31    19    21    1
    32    21    22    1
    33    19    20   ar
    34    20    23    1
    35    23    24    1
    36    30    31   ar
    37    31    32   ar
    38    32    36    1
    39    36    37    1
    40    32    33   ar
    41    33    28   ar
    42    12     2   ar
    43    20    15   ar
    44    10     4   ar
    45    26    27    1
@<TRIPOS>MOLECULE
*****
 42 45 0 0 0
SMALL
GASTEIGER

@<TRIPOS>ATOM
      1 C         141.3060  140.9679  162.6756 C.3     1  UNL1        0.0808
      2 C         141.3464  140.7157  164.1538 C.ar    1  UNL1        0.0375
      3 C         141.0061  141.8182  165.1122 C.ar    1  UNL1        0.0023
      4 C         141.0465  141.5661  166.5903 C.ar    1  UNL1        0.0181
      5 C         140.7061  142.6686  167.5488 C.ar    1  UNL1        0.0082
      6 C         140.7465  142.4164  169.0270 C.ar    1  UNL1        0.0347
      7 BR        140.4062  143.5189  169.9854 Br      1  UNL1       -0.0490
      8 C         141.1272  141.0618  169.5466 C.ar    1  UNL1        0.0082
      9 C         141.4675  139.9593  168.5881 C.ar    1  UNL1        0.0197
     10 C         141.4272  140.2114  167.1100 C.ar    1  UNL1        0.0844
     11 N         141.7675  139.1089  166.1515 N.ar    1  UNL1       -0.2119
     12 C         141.7271  139.3611  164.6734 C.ar    1  UNL1        0.2211
     13 O         142.0674  138.2586  163.7149 O.3     1  UNL1       -0.4563
     14 C         141.0910  137.1456  163.4747 C.3     1  UNL1        0.2542
     15 C         140.2033  140.3819  161.8447 C.ar    1  UNL1        0.0245
     16 C         138.7735  140.5625  162.2607 C.ar    1  UNL1        0.0200
     17 C         137.6708  139.9764  161.4298 C.ar    1  UNL1        0.1019
     18 N         137.9979  139.2097  160.1827 N.ar    1  UNL1       -0.2076
     19 C         139.4277  139.0291  159.7666 C.ar    1  UNL1        0.2598
     20 C         140.5304  139.6152  160.5976 C.ar    1  UNL1        0.1879
     21 O         139.7547  138.2624  158.5195 O.3     1  UNL1       -0.4541
     22 C         139.7295  138.9513  157.1873 C.3     1  UNL1        0.2543
     23 O         141.9602  139.4346  160.1815 O.3     1  UNL1       -0.4670
     24 C         142.5771  138.0673  160.1912 C.3     1  UNL1        0.2527
     25 C         142.3684  141.8062  162.0285 C.3     1  UNL1        0.1162
     26 O         143.3917  140.7577  162.3504 O.3     1  UNL1       -0.3820
     27 H         144.2600  141.0428  162.0252 H       1  UNL1        0.2107
     28 C         139.9996  144.2227  159.9551 C.ar    1  UNL1        0.2272
     29 C         141.0229  143.1743  160.2770 C.ar    1  UNL1        0.0559
     30 C         141.3450  142.8546  161.7066 C.ar    1  UNL1        0.0117
     31 C         140.6438  143.5833  162.8144 C.ar    1  UNL1        0.0559
     32 C         139.6205  144.6317  162.4926 C.ar    1  UNL1        0.2272
     33 N         139.2984  144.9515  161.0629 N.ar    1  UNL1       -0.1767
     34 C         140.3478  145.6999  157.8463 C.3     1  UNL1        0.2542
     35 O         139.6775  144.5424  158.5254 O.3     1  UNL1       -0.4561
     36 O         138.9193  145.3605  163.6004 O.3     1  UNL1       -0.4561
     37 C         138.6528  144.6668  164.9035 C.3     1  UNL1        0.2542
     38 C         143.4307  142.6444  161.3814 C.3     1  UNL1        0.0491
     39 C         144.5603  143.1899  162.2040 C.3     1  UNL1        0.0750
     40 N         144.2994  143.7051  163.5884 N.3     1  UNL1       -0.2702
     41 C         143.7070  145.0695  163.7816 C.3     1  UNL1        0.0897
     42 C         144.6310  142.8557  164.7795 C.3     1  UNL1        0.0897
@<TRIPOS>BOND
     1    34    35    1
     2    35    28    1
     3    28    29   ar
     4    29    30   ar
     5    30    25    1
     6    25    26    1
     7    25    38    1
     8    38    39    1
     9    39    40    1
    10    40    41    1
    11    40    42    1
    12    25     1    1
    13     1     2    1
    14     2     3   ar
    15     3     4   ar
    16     4     5   ar
    17     5     6   ar
    18     6     7    1
    19     6     8   ar
    20     8     9   ar
    21     9    10   ar
    22    10    11   ar
    23    11    12   ar
    24    12    13    1
    25    13    14    1
    26     1    15    1
    27    15    16   ar
    28    16    17   ar
    29    17    18   ar
    30    18    19   ar
    31    19    21    1
    32    21    22    1
    33    19    20   ar
    34    20    23    1
    35    23    24    1
    36    30    31   ar
    37    31    32   ar
    38    32    36    1
    39    36    37    1
    40    32    33   ar
    41    33    28   ar
    42    12     2   ar
    43    20    15   ar
    44    10     4   ar
    45    26    27    1
@<TRIPOS>MOLECULE
*****
 42 45 0 0 0
SMALL
GASTEIGER

@<TRIPOS>ATOM
      1 C         140.7348  140.6364  163.1856 C.3     1  UNL1        0.0808
      2 C         140.4409  140.5460  164.6538 C.ar    1  UNL1        0.0375
      3 C         140.6363  141.7454  165.5331 C.ar    1  UNL1        0.0023
      4 C         140.3424  141.6550  167.0012 C.ar    1  UNL1        0.0181
      5 C         140.5378  142.8545  167.8805 C.ar    1  UNL1        0.0082
      6 C         140.2439  142.7640  169.3487 C.ar    1  UNL1        0.0347
      7 BR        140.4393  143.9634  170.2279 Br      1  UNL1       -0.0490
      8 C         139.7546  141.4741  169.9375 C.ar    1  UNL1        0.0082
      9 C         139.5591  140.2747  169.0582 C.ar    1  UNL1        0.0197
     10 C         139.8531  140.3651  167.5901 C.ar    1  UNL1        0.0844
     11 N         139.6576  139.1656  166.7108 N.ar    1  UNL1       -0.2119
     12 C         139.9516  139.2561  165.2426 C.ar    1  UNL1        0.2211
     13 O         139.7561  138.0567  164.3634 O.3     1  UNL1       -0.4563
     14 C         140.7633  136.9452  164.3763 C.3     1  UNL1        0.2542
     15 C         141.8778  139.8612  162.6004 C.ar    1  UNL1        0.0245
     16 C         143.2586  140.0201  163.1645 C.ar    1  UNL1        0.0200
     17 C         144.4016  139.2448  162.5793 C.ar    1  UNL1        0.1019
     18 N         144.1639  138.3107  161.4299 N.ar    1  UNL1       -0.2076
     19 C         142.7831  138.1518  160.8659 C.ar    1  UNL1        0.2598
     20 C         141.6400  138.9271  161.4512 C.ar    1  UNL1        0.1879
     21 O         142.5453  137.2177  159.7166 O.3     1  UNL1       -0.4541
     22 C         142.7550  137.6918  158.3091 C.3     1  UNL1        0.2543
     23 O         140.2592  138.7682  160.8871 O.3     1  UNL1       -0.4670
     24 C         139.9328  139.3276  159.5341 C.3     1  UNL1        0.2527
     25 C         139.8857  141.5022  162.3027 C.3     1  UNL1        0.1162
     26 O         138.7046  140.6173  162.5710 O.3     1  UNL1       -0.3820
     27 H         137.9323  140.9544  162.0905 H       1  UNL1        0.2107
     28 C         142.7657  143.4280  160.3670 C.ar    1  UNL1        0.2272
     29 C         141.5846  142.5431  160.6353 C.ar    1  UNL1        0.0559
     30 C         141.0668  142.3870  162.0344 C.ar    1  UNL1        0.0117
     31 C         141.7302  143.1158  163.1652 C.ar    1  UNL1        0.0559
     32 C         142.9114  144.0006  162.8970 C.ar    1  UNL1        0.2272
     33 N         143.4291  144.1567  161.4979 N.ar    1  UNL1       -0.1767
     34 C         142.4684  144.3173  157.9441 C.3     1  UNL1        0.2542
     35 O         143.2834  143.5841  158.9678 O.3     1  UNL1       -0.4561
     36 O         143.5748  144.7294  164.0279 O.3     1  UNL1       -0.4561
     37 C         144.3416  143.9645  165.0657 C.3     1  UNL1        0.2542
     38 C         139.0366  142.3679  161.4198 C.3     1  UNL1        0.0491
     39 C         137.9497  143.2112  162.0178 C.3     1  UNL1        0.0750
     40 N         138.2905  144.2732  163.0208 N.3     1  UNL1       -0.2702
     41 C         137.8702  144.1157  164.4520 C.3     1  UNL1        0.0897
     42 C         139.0517  145.4928  162.5925 C.3     1  UNL1        0.0897
@<TRIPOS>BOND
     1    34    35    1
     2    35    28    1
     3    28    29   ar
     4    29    30   ar
     5    30    25    1
     6    25    26    1
     7    25    38    1
     8    38    39    1
     9    39    40    1
    10    40    41    1
    11    40    42    1
    12    25     1    1
    13     1     2    1
    14     2     3   ar
    15     3     4   ar
    16     4     5   ar
    17     5     6   ar
    18     6     7    1
    19     6     8   ar
    20     8     9   ar
    21     9    10   ar
    22    10    11   ar
    23    11    12   ar
    24    12    13    1
    25    13    14    1
    26     1    15    1
    27    15    16   ar
    28    16    17   ar
    29    17    18   ar
    30    18    19   ar
    31    19    21    1
    32    21    22    1
    33    19    20   ar
    34    20    23    1
    35    23    24    1
    36    30    31   ar
    37    31    32   ar
    38    32    36    1
    39    36    37    1
    40    32    33   ar
    41    33    28   ar
    42    12     2   ar
    43    20    15   ar
    44    10     4   ar
    45    26    27    1
@<TRIPOS>MOLECULE
*****
 42 45 0 0 0
SMALL
GASTEIGER

@<TRIPOS>ATOM
      1 C         141.5301  141.3929  164.2398 C.3     1  UNL1        0.0808
      2 C         142.3691  141.7527  163.0494 C.ar    1  UNL1        0.0375
      3 C         142.2730  140.9414  161.7914 C.ar    1  UNL1        0.0023
      4 C         143.1118  141.3010  160.6011 C.ar    1  UNL1        0.0181
      5 C         143.0157  140.4898  159.3431 C.ar    1  UNL1        0.0082
      6 C         143.8547  140.8495  158.1528 C.ar    1  UNL1        0.0347
      7 BR        143.7585  140.0382  156.8947 Br      1  UNL1       -0.0490
      8 C         144.7897  142.0204  158.2205 C.ar    1  UNL1        0.0082
      9 C         144.8858  142.8317  159.4785 C.ar    1  UNL1        0.0197
     10 C         144.0469  142.4720  160.6688 C.ar    1  UNL1        0.0844
     11 N         144.1431  143.2833  161.9268 N.ar    1  UNL1       -0.2119
     12 C         143.3041  142.9236  163.1171 C.ar    1  UNL1        0.2211
     13 O         143.4002  143.7348  164.3752 O.3     1  UNL1       -0.4563
     14 C         144.5492  143.5258  165.3165 C.3     1  UNL1        0.2542
     15 C         142.1180  140.5769  165.3526 C.ar    1  UNL1        0.0245
     16 C         142.6892  139.2198  165.0666 C.ar    1  UNL1        0.0200
     17 C         143.2771  138.4037  166.1795 C.ar    1  UNL1        0.1019
     18 N         143.2937  138.9448  167.5784 N.ar    1  UNL1       -0.2076
     19 C         142.7224  140.3020  167.8644 C.ar    1  UNL1        0.2598
     20 C         142.1346  141.1180  166.7515 C.ar    1  UNL1        0.1879
     21 O         142.7390  140.8431  169.2633 O.3     1  UNL1       -0.4541
     22 C         143.6461  141.9848  169.6151 C.3     1  UNL1        0.2543
     23 O         141.5633  142.4752  167.0375 O.3     1  UNL1       -0.4670
     24 C         140.3452  142.6091  167.9026 C.3     1  UNL1        0.2527
     25 C         140.1033  141.8493  164.3172 C.3     1  UNL1        0.1162
     26 O         140.5660  143.2635  164.5070 O.3     1  UNL1       -0.3820
     27 H         139.7958  143.8466  164.5951 H       1  UNL1        0.2107
     28 C         138.6136  138.2545  165.0969 C.ar    1  UNL1        0.2272
     29 C         139.0763  139.6687  165.2867 C.ar    1  UNL1        0.0559
     30 C         139.6407  140.4351  164.1274 C.ar    1  UNL1        0.0117
     31 C         139.7425  139.7874  162.7783 C.ar    1  UNL1        0.0559
     32 C         139.2799  138.3732  162.5886 C.ar    1  UNL1        0.2272
     33 N         138.7154  137.6067  163.7478 N.ar    1  UNL1       -0.1767
     34 C         137.3260  138.2119  167.3530 C.3     1  UNL1        0.2542
     35 O         138.0492  137.4880  166.2562 O.3     1  UNL1       -0.4561
     36 O         139.3817  137.7254  161.2394 O.3     1  UNL1       -0.4561
     37 C         139.7700  138.5422  160.0427 C.3     1  UNL1        0.2542
     38 C         138.6765  142.3057  164.3946 C.3     1  UNL1        0.0491
     39 C         138.0008  142.8646  163.1776 C.3     1  UNL1        0.0750
     40 N         138.7734  143.7186  162.2164 N.3     1  UNL1       -0.2702
     41 C         139.3797  143.1058  160.9889 C.3     1  UNL1        0.0897
     42 C         138.9396  145.1854  162.4828 C.3     1  UNL1        0.0897
@<TRIPOS>BOND
     1    34    35    1
     2    35    28    1
     3    28    29   ar
     4    29    30   ar
     5    30    25    1
     6    25    26    1
     7    25    38    1
     8    38    39    1
     9    39    40    1
    10    40    41    1
    11    40    42    1
    12    25     1    1
    13     1     2    1
    14     2     3   ar
    15     3     4   ar
    16     4     5   ar
    17     5     6   ar
    18     6     7    1
    19     6     8   ar
    20     8     9   ar
    21     9    10   ar
    22    10    11   ar
    23    11    12   ar
    24    12    13    1
    25    13    14    1
    26     1    15    1
    27    15    16   ar
    28    16    17   ar
    29    17    18   ar
    30    18    19   ar
    31    19    21    1
    32    21    22    1
    33    19    20   ar
    34    20    23    1
    35    23    24    1
    36    30    31   ar
    37    31    32   ar
    38    32    36    1
    39    36    37    1
    40    32    33   ar
    41    33    28   ar
    42    12     2   ar
    43    20    15   ar
    44    10     4   ar
    45    26    27    1
@<TRIPOS>MOLECULE
*****
 42 45 0 0 0
SMALL
GASTEIGER

@<TRIPOS>ATOM
      1 C         141.6816  142.1109  163.4666 C.3     1  UNL1        0.0808
      2 C         142.0789  142.1751  164.9117 C.ar    1  UNL1        0.0375
      3 C         141.2601  141.4625  165.9470 C.ar    1  UNL1        0.0023
      4 C         141.6573  141.5266  167.3920 C.ar    1  UNL1        0.0181
      5 C         140.8386  140.8140  168.4273 C.ar    1  UNL1        0.0082
      6 C         141.2359  140.8782  169.8723 C.ar    1  UNL1        0.0347
      7 BR        140.4171  140.1656  170.9076 Br      1  UNL1       -0.0490
      8 C         142.4519  141.6550  170.2820 C.ar    1  UNL1        0.0082
      9 C         143.2707  142.3676  169.2467 C.ar    1  UNL1        0.0197
     10 C         142.8734  142.3034  167.8018 C.ar    1  UNL1        0.0844
     11 N         143.6922  143.0160  166.7665 N.ar    1  UNL1       -0.2119
     12 C         143.2949  142.9518  165.3214 C.ar    1  UNL1        0.2211
     13 O         144.1137  143.6644  164.2861 O.3     1  UNL1       -0.4563
     14 C         143.8573  145.1131  163.9939 C.3     1  UNL1        0.2542
     15 C         140.8212  143.1887  162.8768 C.ar    1  UNL1        0.0245
     16 C         139.4951  143.5137  163.4978 C.ar    1  UNL1        0.0200
     17 C         138.6347  144.5915  162.9079 C.ar    1  UNL1        0.1019
     18 N         139.1005  145.3444  161.6970 N.ar    1  UNL1       -0.2076
     19 C         140.4266  145.0194  161.0760 C.ar    1  UNL1        0.2598
     20 C         141.2870  143.9415  161.6659 C.ar    1  UNL1        0.1879
     21 O         140.8924  145.7722  159.8651 O.3     1  UNL1       -0.4541
     22 C         140.2347  145.5381  158.5375 C.3     1  UNL1        0.2543
     23 O         142.6132  143.6165  161.0449 O.3     1  UNL1       -0.4670
     24 C         142.6710  143.0102  159.6741 C.3     1  UNL1        0.2527
     25 C         142.1447  140.9688  162.6115 C.3     1  UNL1        0.1162
     26 O         143.5420  141.5136  162.6408 O.3     1  UNL1       -0.3820
     27 H         144.1256  140.9347  162.1257 H       1  UNL1        0.2107
     28 C         138.7889  139.1890  163.7607 C.ar    1  UNL1        0.2272
     29 C         140.1862  139.7338  163.7899 C.ar    1  UNL1        0.0559
     30 C         140.7475  140.4241  162.5823 C.ar    1  UNL1        0.0117
     31 C         139.9114  140.5696  161.3455 C.ar    1  UNL1        0.0559
     32 C         138.5142  140.0249  161.3162 C.ar    1  UNL1        0.2272
     33 N         137.9529  139.3346  162.5239 N.ar    1  UNL1       -0.1767
     34 C         138.1921  139.2087  166.2893 C.3     1  UNL1        0.2542
     35 O         138.2276  138.4987  164.9684 O.3     1  UNL1       -0.4561
     36 O         137.6781  140.1705  160.0793 O.3     1  UNL1       -0.4561
     37 C         138.3030  140.6545  158.8044 C.3     1  UNL1        0.2542
     38 C         142.6079  139.8268  161.7564 C.3     1  UNL1        0.0491
     39 C         143.4715  138.7509  162.3454 C.3     1  UNL1        0.0750
     40 N         143.7989  138.7693  163.8091 N.3     1  UNL1       -0.2702
     41 C         142.8406  138.1771  164.7995 C.3     1  UNL1        0.0897
     42 C         145.0846  139.3801  164.2825 C.3     1  UNL1        0.0897
@<TRIPOS>BOND
     1    34    35    1
     2    35    28    1
     3    28    29   ar
     4    29    30   ar
     5    30    25    1
     6    25    26    1
     7    25    38    1
     8    38    39    1
     9    39    40    1
    10    40    41    1
    11    40    42    1
    12    25     1    1
    13     1     2    1
    14     2     3   ar
    15     3     4   ar
    16     4     5   ar
    17     5     6   ar
    18     6     7    1
    19     6     8   ar
    20     8     9   ar
    21     9    10   ar
    22    10    11   ar
    23    11    12   ar
    24    12    13    1
    25    13    14    1
    26     1    15    1
    27    15    16   ar
    28    16    17   ar
    29    17    18   ar
    30    18    19   ar
    31    19    21    1
    32    21    22    1
    33    19    20   ar
    34    20    23    1
    35    23    24    1
    36    30    31   ar
    37    31    32   ar
    38    32    36    1
    39    36    37    1
    40    32    33   ar
    41    33    28   ar
    42    12     2   ar
    43    20    15   ar
    44    10     4   ar
    45    26    27    1
@<TRIPOS>MOLECULE
*****
 42 45 0 0 0
SMALL
GASTEIGER

@<TRIPOS>ATOM
      1 C         141.5632  140.9868  162.7403 C.3     1  UNL1        0.0808
      2 C         141.4946  140.7427  164.2187 C.ar    1  UNL1        0.0375
      3 C         141.1588  141.8695  165.1501 C.ar    1  UNL1        0.0023
      4 C         141.0902  141.6255  166.6285 C.ar    1  UNL1        0.0181
      5 C         140.7544  142.7523  167.5599 C.ar    1  UNL1        0.0082
      6 C         140.6858  142.5082  169.0384 C.ar    1  UNL1        0.0347
      7 BR        140.3500  143.6350  169.9698 Br      1  UNL1       -0.0490
      8 C         140.9530  141.1373  169.5854 C.ar    1  UNL1        0.0082
      9 C         141.2888  140.0105  168.6540 C.ar    1  UNL1        0.0197
     10 C         141.3574  140.2545  167.1756 C.ar    1  UNL1        0.0844
     11 N         141.6932  139.1277  166.2442 N.ar    1  UNL1       -0.2119
     12 C         141.7618  139.3718  164.7657 C.ar    1  UNL1        0.2211
     13 O         142.0975  138.2450  163.8343 O.3     1  UNL1       -0.4563
     14 C         141.1002  137.1517  163.5895 C.3     1  UNL1        0.2542
     15 C         140.6296  140.2623  161.8164 C.ar    1  UNL1        0.0245
     16 C         139.1536  140.2708  162.0835 C.ar    1  UNL1        0.0200
     17 C         138.2201  139.5463  161.1596 C.ar    1  UNL1        0.1019
     18 N         138.7626  138.8133  159.9685 N.ar    1  UNL1       -0.2076
     19 C         140.2386  138.8049  159.7014 C.ar    1  UNL1        0.2598
     20 C         141.1721  139.5294  160.6254 C.ar    1  UNL1        0.1879
     21 O         140.7811  138.0720  158.5105 O.3     1  UNL1       -0.4541
     22 C         139.9754  137.9929  157.2477 C.3     1  UNL1        0.2543
     23 O         142.6481  139.5210  160.3583 O.3     1  UNL1       -0.4670
     24 C         143.4499  138.2797  160.6164 C.3     1  UNL1        0.2527
     25 C         142.5653  141.9554  162.1858 C.3     1  UNL1        0.1162
     26 O         143.6788  141.0362  162.5923 O.3     1  UNL1       -0.3820
     27 H         144.5298  141.4286  162.3419 H       1  UNL1        0.2107
     28 C         139.4546  144.4090  162.4169 C.ar    1  UNL1        0.2272
     29 C         140.5680  143.4898  162.8234 C.ar    1  UNL1        0.0559
     30 C         141.4519  142.8747  161.7792 C.ar    1  UNL1        0.0117
     31 C         141.2224  143.1789  160.3285 C.ar    1  UNL1        0.0559
     32 C         140.1089  144.0981  159.9219 C.ar    1  UNL1        0.2272
     33 N         139.2251  144.7132  160.9661 N.ar    1  UNL1       -0.1767
     34 C         138.8292  144.7572  164.9144 C.3     1  UNL1        0.2542
     35 O         138.5707  145.0241  163.4612 O.3     1  UNL1       -0.4561
     36 O         139.8794  144.4023  158.4711 O.3     1  UNL1       -0.4561
     37 C         140.5572  145.5797  157.8353 C.3     1  UNL1        0.2542
     38 C         143.5675  142.9241  161.6313 C.3     1  UNL1        0.0491
     39 C         144.5572  143.5844  162.5448 C.3     1  UNL1        0.0750
     40 N         144.1148  144.1027  163.8811 N.3     1  UNL1       -0.2702
     41 C         144.4746  143.3565  165.1315 C.3     1  UNL1        0.0897
     42 C         143.3125  145.3673  163.9668 C.3     1  UNL1        0.0897
@<TRIPOS>BOND
     1    34    35    1
     2    35    28    1
     3    28    29   ar
     4    29    30   ar
     5    30    25    1
     6    25    26    1
     7    25    38    1
     8    38    39    1
     9    39    40    1
    10    40    41    1
    11    40    42    1
    12    25     1    1
    13     1     2    1
    14     2     3   ar
    15     3     4   ar
    16     4     5   ar
    17     5     6   ar
    18     6     7    1
    19     6     8   ar
    20     8     9   ar
    21     9    10   ar
    22    10    11   ar
    23    11    12   ar
    24    12    13    1
    25    13    14    1
    26     1    15    1
    27    15    16   ar
    28    16    17   ar
    29    17    18   ar
    30    18    19   ar
    31    19    21    1
    32    21    22    1
    33    19    20   ar
    34    20    23    1
    35    23    24    1
    36    30    31   ar
    37    31    32   ar
    38    32    36    1
    39    36    37    1
    40    32    33   ar
    41    33    28   ar
    42    12     2   ar
    43    20    15   ar
    44    10     4   ar
    45    26    27    1
@<TRIPOS>MOLECULE
*****
 42 45 0 0 0
SMALL
GASTEIGER

@<TRIPOS>ATOM
      1 C         141.6667  141.3074  163.5391 C.3     1  UNL1        0.0808
      2 C         142.1341  141.6057  164.9329 C.ar    1  UNL1        0.0375
      3 C         141.3415  141.1194  166.1099 C.ar    1  UNL1        0.0023
      4 C         141.8088  141.4177  167.5037 C.ar    1  UNL1        0.0181
      5 C         141.0162  140.9314  168.6807 C.ar    1  UNL1        0.0082
      6 C         141.4836  141.2298  170.0745 C.ar    1  UNL1        0.0347
      7 BR        140.6910  140.7435  171.2515 Br      1  UNL1       -0.0490
      8 C         142.7435  142.0143  170.2912 C.ar    1  UNL1        0.0082
      9 C         143.5361  142.5006  169.1142 C.ar    1  UNL1        0.0197
     10 C         143.0688  142.2023  167.7205 C.ar    1  UNL1        0.0844
     11 N         143.8614  142.6886  166.5435 N.ar    1  UNL1       -0.2119
     12 C         143.3940  142.3903  165.1497 C.ar    1  UNL1        0.2211
     13 O         144.1866  142.8765  163.9727 O.3     1  UNL1       -0.4563
     14 C         145.4668  142.1916  163.5960 C.3     1  UNL1        0.2542
     15 C         142.4879  140.4262  162.6452 C.ar    1  UNL1        0.0245
     16 C         142.9419  139.0811  163.1297 C.ar    1  UNL1        0.0200
     17 C         143.7630  138.1999  162.2358 C.ar    1  UNL1        0.1019
     18 N         144.1302  138.6637  160.8573 N.ar    1  UNL1       -0.2076
     19 C         143.6762  140.0088  160.3728 C.ar    1  UNL1        0.2598
     20 C         142.8550  140.8900  161.2668 C.ar    1  UNL1        0.1879
     21 O         144.0434  140.4726  158.9944 O.3     1  UNL1       -0.4541
     22 C         143.4397  139.8068  157.7935 C.3     1  UNL1        0.2543
     23 O         142.4010  142.2350  160.7823 O.3     1  UNL1       -0.4670
     24 C         143.3902  143.3535  160.6384 C.3     1  UNL1        0.2527
     25 C         140.3781  141.8903  163.0393 C.3     1  UNL1        0.1162
     26 O         140.9545  143.2697  163.1621 O.3     1  UNL1       -0.3820
     27 H         140.2932  143.9224  162.8838 H       1  UNL1        0.2107
     28 C         138.8154  138.3778  164.0240 C.ar    1  UNL1        0.2272
     29 C         139.3918  139.7571  164.1468 C.ar    1  UNL1        0.0559
     30 C         139.8017  140.5109  162.9165 C.ar    1  UNL1        0.0117
     31 C         139.6353  139.8853  161.5634 C.ar    1  UNL1        0.0559
     32 C         139.0589  138.5059  161.4407 C.ar    1  UNL1        0.2272
     33 N         138.6490  137.7522  162.6710 N.ar    1  UNL1       -0.1767
     34 C         137.9750  138.3701  166.4825 C.3     1  UNL1        0.2542
     35 O         138.4054  137.6240  165.2545 O.3     1  UNL1       -0.4561
     36 O         138.8925  137.8803  160.0875 O.3     1  UNL1       -0.4561
     37 C         139.6304  138.4390  158.9071 C.3     1  UNL1        0.2542
     38 C         139.0896  142.4732  162.5395 C.3     1  UNL1        0.0491
     39 C         139.0634  143.8641  161.9782 C.3     1  UNL1        0.0750
     40 N         139.5433  144.1177  160.5799 N.3     1  UNL1       -0.2702
     41 C         140.2756  145.3863  160.2567 C.3     1  UNL1        0.0897
     42 C         139.2909  143.1026  159.5046 C.3     1  UNL1        0.0897
@<TRIPOS>BOND
     1    34    35    1
     2    35    28    1
     3    28    29   ar
     4    29    30   ar
     5    30    25    1
     6    25    26    1
     7    25    38    1
     8    38    39    1
     9    39    40    1
    10    40    41    1
    11    40    42    1
    12    25     1    1
    13     1     2    1
    14     2     3   ar
    15     3     4   ar
    16     4     5   ar
    17     5     6   ar
    18     6     7    1
    19     6     8   ar
    20     8     9   ar
    21     9    10   ar
    22    10    11   ar
    23    11    12   ar
    24    12    13    1
    25    13    14    1
    26     1    15    1
    27    15    16   ar
    28    16    17   ar
    29    17    18   ar
    30    18    19   ar
    31    19    21    1
    32    21    22    1
    33    19    20   ar
    34    20    23    1
    35    23    24    1
    36    30    31   ar
    37    31    32   ar
    38    32    36    1
    39    36    37    1
    40    32    33   ar
    41    33    28   ar
    42    12     2   ar
    43    20    15   ar
    44    10     4   ar
    45    26    27    1
@<TRIPOS>MOLECULE
*****
 42 45 0 0 0
SMALL
GASTEIGER

@<TRIPOS>ATOM
      1 C         141.6640  141.9483  162.5853 C.3     1  UNL1        0.0808
      2 C         142.0549  142.0362  164.0308 C.ar    1  UNL1        0.0375
      3 C         141.0357  141.7766  165.1004 C.ar    1  UNL1        0.0023
      4 C         141.4265  141.8645  166.5459 C.ar    1  UNL1        0.0181
      5 C         140.4074  141.6049  167.6155 C.ar    1  UNL1        0.0082
      6 C         140.7982  141.6928  169.0610 C.ar    1  UNL1        0.0347
      7 BR        139.7791  141.4332  170.1306 Br      1  UNL1       -0.0490
      8 C         142.2081  142.0403  169.4370 C.ar    1  UNL1        0.0082
      9 C         143.2272  142.3000  168.3674 C.ar    1  UNL1        0.0197
     10 C         142.8365  142.2121  166.9219 C.ar    1  UNL1        0.0844
     11 N         143.8556  142.4717  165.8523 N.ar    1  UNL1       -0.2119
     12 C         143.4647  142.3838  164.4068 C.ar    1  UNL1        0.2211
     13 O         144.4839  142.6434  163.3372 O.3     1  UNL1       -0.4563
     14 C         145.7111  141.7857  163.2465 C.3     1  UNL1        0.2542
     15 C         142.4954  141.1431  161.6312 C.ar    1  UNL1        0.0245
     16 C         142.7155  139.6801  161.8786 C.ar    1  UNL1        0.0200
     17 C         143.5469  138.8749  160.9245 C.ar    1  UNL1        0.1019
     18 N         144.1583  139.5326  159.7230 N.ar    1  UNL1       -0.2076
     19 C         143.9383  140.9956  159.4756 C.ar    1  UNL1        0.2598
     20 C         143.1068  141.8009  160.4297 C.ar    1  UNL1        0.1879
     21 O         144.5496  141.6534  158.2741 O.3     1  UNL1       -0.4541
     22 C         144.9298  140.8291  157.0800 C.3     1  UNL1        0.2543
     23 O         142.8867  143.2639  160.1823 O.3     1  UNL1       -0.4670
     24 C         142.0148  143.7095  159.0460 C.3     1  UNL1        0.2527
     25 C         140.4418  142.6657  162.0938 C.3     1  UNL1        0.1162
     26 O         141.0517  143.9772  162.4912 O.3     1  UNL1       -0.3820
     27 H         140.4380  144.6972  162.2772 H       1  UNL1        0.2107
     28 C         138.9643  139.7430  159.8522 C.ar    1  UNL1        0.2272
     29 C         139.5742  141.0545  160.2495 C.ar    1  UNL1        0.0559
     30 C         139.8318  141.3541  161.6965 C.ar    1  UNL1        0.0117
     31 C         139.4794  140.3423  162.7462 C.ar    1  UNL1        0.0559
     32 C         138.8694  139.0307  162.3488 C.ar    1  UNL1        0.2272
     33 N         138.6119  138.7311  160.9018 N.ar    1  UNL1       -0.1767
     34 C         138.2497  140.5348  157.4830 C.3     1  UNL1        0.2542
     35 O         138.7067  139.4434  158.4051 O.3     1  UNL1       -0.4561
     36 O         138.5170  138.0188  163.3986 O.3     1  UNL1       -0.4561
     37 C         139.4272  137.8073  164.5719 C.3     1  UNL1        0.2542
     38 C         139.2195  143.3830  161.6024 C.3     1  UNL1        0.0491
     39 C         138.4821  144.3190  162.5136 C.3     1  UNL1        0.0750
     40 N         138.3136  143.9762  163.9642 N.3     1  UNL1       -0.2702
     41 C         137.5340  142.7578  164.3612 C.3     1  UNL1        0.0897
     42 C         138.9249  144.8517  165.0177 C.3     1  UNL1        0.0897
@<TRIPOS>BOND
     1    34    35    1
     2    35    28    1
     3    28    29   ar
     4    29    30   ar
     5    30    25    1
     6    25    26    1
     7    25    38    1
     8    38    39    1
     9    39    40    1
    10    40    41    1
    11    40    42    1
    12    25     1    1
    13     1     2    1
    14     2     3   ar
    15     3     4   ar
    16     4     5   ar
    17     5     6   ar
    18     6     7    1
    19     6     8   ar
    20     8     9   ar
    21     9    10   ar
    22    10    11   ar
    23    11    12   ar
    24    12    13    1
    25    13    14    1
    26     1    15    1
    27    15    16   ar
    28    16    17   ar
    29    17    18   ar
    30    18    19   ar
    31    19    21    1
    32    21    22    1
    33    19    20   ar
    34    20    23    1
    35    23    24    1
    36    30    31   ar
    37    31    32   ar
    38    32    36    1
    39    36    37    1
    40    32    33   ar
    41    33    28   ar
    42    12     2   ar
    43    20    15   ar
    44    10     4   ar
    45    26    27    1
@<TRIPOS>MOLECULE
*****
 42 45 0 0 0
SMALL
GASTEIGER

@<TRIPOS>ATOM
      1 C         141.6518  141.9751  162.5817 C.3     1  UNL1        0.0808
      2 C         142.0464  142.0560  164.0267 C.ar    1  UNL1        0.0375
      3 C         141.0299  141.7915  165.0976 C.ar    1  UNL1        0.0023
      4 C         141.4245  141.8724  166.5425 C.ar    1  UNL1        0.0181
      5 C         140.4080  141.6080  167.6135 C.ar    1  UNL1        0.0082
      6 C         140.8026  141.6888  169.0584 C.ar    1  UNL1        0.0347
      7 BR        139.7862  141.4244  170.1294 Br      1  UNL1       -0.0490
      8 C         142.2136  142.0341  169.4324 C.ar    1  UNL1        0.0082
      9 C         143.2300  142.2985  168.3614 C.ar    1  UNL1        0.0197
     10 C         142.8355  142.2177  166.9165 C.ar    1  UNL1        0.0844
     11 N         143.8520  142.4821  165.8456 N.ar    1  UNL1       -0.2119
     12 C         143.4573  142.4012  164.4006 C.ar    1  UNL1        0.2211
     13 O         144.4738  142.6656  163.3297 O.3     1  UNL1       -0.4563
     14 C         145.6885  141.7929  163.2166 C.3     1  UNL1        0.2542
     15 C         142.4684  141.1569  161.6259 C.ar    1  UNL1        0.0245
     16 C         142.6526  139.6874  161.8643 C.ar    1  UNL1        0.0200
     17 C         143.4692  138.8692  160.9085 C.ar    1  UNL1        0.1019
     18 N         144.1016  139.5204  159.7142 N.ar    1  UNL1       -0.2076
     19 C         143.9174  140.9898  159.4759 C.ar    1  UNL1        0.2598
     20 C         143.1007  141.8081  160.4318 C.ar    1  UNL1        0.1879
     21 O         144.5497  141.6410  158.2818 O.3     1  UNL1       -0.4541
     22 C         144.9304  140.8135  157.0901 C.3     1  UNL1        0.2543
     23 O         142.9165  143.2775  160.1935 O.3     1  UNL1       -0.4670
     24 C         142.0696  143.7514  159.0496 C.3     1  UNL1        0.2527
     25 C         140.4405  142.7125  162.0927 C.3     1  UNL1        0.1162
     26 O         141.0751  144.0142  162.4838 O.3     1  UNL1       -0.3820
     27 H         140.4734  144.7443  162.2699 H       1  UNL1        0.2107
     28 C         138.8152  139.1022  162.3636 C.ar    1  UNL1        0.2272
     29 C         139.4497  140.4038  162.7547 C.ar    1  UNL1        0.0559
     30 C         139.8060  141.4108  161.7016 C.ar    1  UNL1        0.0117
     31 C         139.5276  141.1161  160.2574 C.ar    1  UNL1        0.0559
     32 C         138.8930  139.8144  159.8664 C.ar    1  UNL1        0.2272
     33 N         138.5368  138.8075  160.9195 N.ar    1  UNL1       -0.1767
     34 C         139.4520  137.7434  164.4845 C.3     1  UNL1        0.2542
     35 O         138.4589  138.0951  163.4168 O.3     1  UNL1       -0.4561
     36 O         138.6147  139.5198  158.4221 O.3     1  UNL1       -0.4561
     37 C         138.1575  140.6172  157.5074 C.3     1  UNL1        0.2542
     38 C         139.2293  143.4499  161.6036 C.3     1  UNL1        0.0491
     39 C         138.4933  144.3774  162.5246 C.3     1  UNL1        0.0750
     40 N         138.3130  144.0134  163.9686 N.3     1  UNL1       -0.2702
     41 C         137.5131  142.8008  164.3421 C.3     1  UNL1        0.0897
     42 C         138.9327  144.8622  165.0390 C.3     1  UNL1        0.0897
@<TRIPOS>BOND
     1    34    35    1
     2    35    28    1
     3    28    29   ar
     4    29    30   ar
     5    30    25    1
     6    25    26    1
     7    25    38    1
     8    38    39    1
     9    39    40    1
    10    40    41    1
    11    40    42    1
    12    25     1    1
    13     1     2    1
    14     2     3   ar
    15     3     4   ar
    16     4     5   ar
    17     5     6   ar
    18     6     7    1
    19     6     8   ar
    20     8     9   ar
    21     9    10   ar
    22    10    11   ar
    23    11    12   ar
    24    12    13    1
    25    13    14    1
    26     1    15    1
    27    15    16   ar
    28    16    17   ar
    29    17    18   ar
    30    18    19   ar
    31    19    21    1
    32    21    22    1
    33    19    20   ar
    34    20    23    1
    35    23    24    1
    36    30    31   ar
    37    31    32   ar
    38    32    36    1
    39    36    37    1
    40    32    33   ar
    41    33    28   ar
    42    12     2   ar
    43    20    15   ar
    44    10     4   ar
    45    26    27    1
