@<TRIPOS>MOLECULE
*****
 31 34 0 0 0
SMALL
GASTEIGER

@<TRIPOS>ATOM
      1 C         141.7122  143.4929  162.5428 C.ar    1  UNL1        0.1549
      2 C         141.6467  142.0331  162.2044 C.ar    1  UNL1        0.0553
      3 C         141.7563  141.0055  163.2915 C.ar    1  UNL1        0.1753
      4 F         141.6908  139.5456  162.9531 F       1  UNL1       -0.2009
      5 C         141.9315  141.4378  164.7172 C.ar    1  UNL1        0.1679
      6 C         141.9970  142.8976  165.0557 C.ar    1  UNL1        0.0702
      7 C         141.8874  143.9252  163.9685 C.ar    1  UNL1        0.1620
      8 F         141.9529  145.3851  164.3070 F       1  UNL1       -0.2026
      9 S         141.6025  144.5206  161.4556 S.O2    1  UNL1        0.0773
     10 O         140.1937  144.8162  161.8773 O.2     1  UNL1       -0.1498
     11 O         143.0113  144.2250  161.0340 O.2     1  UNL1       -0.1498
     12 N         141.4928  145.5482  160.3685 N.pl3   1  UNL1       -0.1925
     13 H         141.4712  146.5057  160.5966 H       1  UNL1        0.1758
     14 C         142.4858  145.0888  155.2029 C.3     1  UNL1        0.0744
     15 C         141.8725  144.9059  156.5594 C.ar    1  UNL1        0.1494
     16 N         140.7232  144.0013  156.8928 N.ar    1  UNL1       -0.1917
     17 S         140.4412  144.1319  158.3603 S.2     1  UNL1        0.0503
     18 C         141.4160  145.1171  158.9338 C.ar    1  UNL1        0.1973
     19 N         142.3006  145.5955  157.8209 N.ar    1  UNL1       -0.2068
     20 O         142.0412  140.4101  165.8044 O.3     1  UNL1       -0.4764
     21 C         140.8988  140.1967  166.7527 C.3     1  UNL1        0.1714
     22 C         140.8835  140.5545  168.2094 C.3     1  UNL1        0.0439
     23 C         139.5464  140.1670  168.7679 C.3     1  UNL1        0.0042
     24 C         138.7352  139.5698  167.6564 C.3     1  UNL1        0.0096
     25 C         139.5711  139.5882  166.4110 C.3     1  UNL1        0.0799
     26 C         139.1526  139.0862  165.0609 C.ar    1  UNL1        0.0603
     27 C         139.3624  137.6981  164.5324 C.ar    1  UNL1        0.0369
     28 C         138.7903  137.6382  163.1471 C.ar    1  UNL1        0.1213
     29 N         138.2270  138.9891  162.8193 N.ar    1  UNL1       -0.1679
     30 N         138.4509  139.8841  164.0021 N.ar    1  UNL1       -0.2527
     31 C         138.0444  141.3241  164.1076 C.3     1  UNL1        0.1533
@<TRIPOS>BOND
     1    14    15    1
     2    15    16   ar
     3    16    17   ar
     4    17    18   ar
     5    18    12    1
     6    12     9    1
     7     9    10    2
     8     9    11    2
     9     9     1    1
    10     1     2   ar
    11     2     3   ar
    12     3     4    1
    13     3     5   ar
    14     5    20    1
    15    21    20    1
    16    21    22    1
    17    22    23    1
    18    23    24    1
    19    24    25    1
    20    25    26    1
    21    26    27   ar
    22    27    28   ar
    23    28    29   ar
    24    29    30   ar
    25    30    31    1
    26     5     6   ar
    27     6     7   ar
    28     7     8    1
    29    18    19   ar
    30    19    15   ar
    31     7     1   ar
    32    25    21    1
    33    30    26   ar
    34    12    13    1
@<TRIPOS>MOLECULE
*****
 31 34 0 0 0
SMALL
GASTEIGER

@<TRIPOS>ATOM
      1 C         139.8093  143.5120  162.9462 C.ar    1  UNL1        0.1549
      2 C         141.0622  142.6960  163.0650 C.ar    1  UNL1        0.0553
      3 C         141.1934  141.6782  164.1591 C.ar    1  UNL1        0.1753
      4 F         142.4464  140.8621  164.2780 F       1  UNL1       -0.2009
      5 C         140.0717  141.4766  165.1343 C.ar    1  UNL1        0.1679
      6 C         138.8187  142.2926  165.0154 C.ar    1  UNL1        0.0702
      7 C         138.6876  143.3104  163.9214 C.ar    1  UNL1        0.1620
      8 F         137.4346  144.1265  163.8024 F       1  UNL1       -0.2026
      9 S         139.6781  144.5298  161.8521 S.O2    1  UNL1        0.0773
     10 O         140.5295  145.4832  162.6369 O.2     1  UNL1       -0.1498
     11 O         138.8267  143.5764  161.0672 O.2     1  UNL1       -0.1498
     12 N         139.5469  145.5475  160.7580 N.pl3   1  UNL1       -0.1925
     13 H         138.8907  146.2768  160.8403 H       1  UNL1        0.1758
     14 C         141.3162  146.0144  155.8050 C.3     1  UNL1        0.0744
     15 C         141.2288  145.6688  157.2620 C.ar    1  UNL1        0.1494
     16 N         142.2756  144.9523  158.0626 N.ar    1  UNL1       -0.1917
     17 S         141.7730  144.8197  159.4696 S.2     1  UNL1        0.0503
     18 C         140.4156  145.4542  159.5387 C.ar    1  UNL1        0.1973
     19 N         140.0791  145.9789  158.1743 N.ar    1  UNL1       -0.2068
     20 O         140.2029  140.4588  166.2284 O.3     1  UNL1       -0.4764
     21 C         139.2513  139.3012  166.2939 C.3     1  UNL1        0.1714
     22 C         138.1906  139.0894  167.3331 C.3     1  UNL1        0.0439
     23 C         137.4771  137.8094  167.0132 C.3     1  UNL1        0.0042
     24 C         138.0969  137.2300  165.7762 C.3     1  UNL1        0.0096
     25 C         139.1934  138.1520  165.3316 C.3     1  UNL1        0.0799
     26 C         140.0769  137.9586  164.1350 C.ar    1  UNL1        0.0603
     27 C         141.5647  137.7691  164.1588 C.ar    1  UNL1        0.0369
     28 C         142.0350  137.6142  162.7428 C.ar    1  UNL1        0.1213
     29 N         140.8379  137.7080  161.8439 N.ar    1  UNL1       -0.1679
     30 N         139.6277  137.9209  162.7043 N.ar    1  UNL1       -0.2527
     31 C         138.2162  138.0699  162.2191 C.3     1  UNL1        0.1533
@<TRIPOS>BOND
     1    14    15    1
     2    15    16   ar
     3    16    17   ar
     4    17    18   ar
     5    18    12    1
     6    12     9    1
     7     9    10    2
     8     9    11    2
     9     9     1    1
    10     1     2   ar
    11     2     3   ar
    12     3     4    1
    13     3     5   ar
    14     5    20    1
    15    21    20    1
    16    21    22    1
    17    22    23    1
    18    23    24    1
    19    24    25    1
    20    25    26    1
    21    26    27   ar
    22    27    28   ar
    23    28    29   ar
    24    29    30   ar
    25    30    31    1
    26     5     6   ar
    27     6     7   ar
    28     7     8    1
    29    18    19   ar
    30    19    15   ar
    31     7     1   ar
    32    25    21    1
    33    30    26   ar
    34    12    13    1
@<TRIPOS>MOLECULE
*****
 31 34 0 0 0
SMALL
GASTEIGER

@<TRIPOS>ATOM
      1 C         140.8738  143.9811  162.1431 C.ar    1  UNL1        0.1549
      2 C         140.2331  142.6338  161.9873 C.ar    1  UNL1        0.0553
      3 C         139.8860  141.8237  163.2010 C.ar    1  UNL1        0.1753
      4 F         139.2453  140.4763  163.0453 F       1  UNL1       -0.2009
      5 C         140.1794  142.3609  164.5705 C.ar    1  UNL1        0.1679
      6 C         140.8201  143.7082  164.7262 C.ar    1  UNL1        0.0702
      7 C         141.1673  144.5183  163.5125 C.ar    1  UNL1        0.1620
      8 F         141.8080  145.8657  163.6682 F       1  UNL1       -0.2026
      9 S         141.2210  144.7914  160.9293 S.O2    1  UNL1        0.0773
     10 O         142.6447  144.3296  161.0285 O.2     1  UNL1       -0.1498
     11 O         139.7973  145.2531  160.8302 O.2     1  UNL1       -0.1498
     12 N         141.5682  145.6015  159.7157 N.pl3   1  UNL1       -0.1925
     13 H         142.2369  146.3213  159.7791 H       1  UNL1        0.1758
     14 C         138.7476  146.1698  155.2882 C.3     1  UNL1        0.0744
     15 C         139.6002  145.5762  156.3702 C.ar    1  UNL1        0.1494
     16 N         140.1265  144.1720  156.4076 N.ar    1  UNL1       -0.1917
     17 S         140.9277  144.0106  157.6653 S.2     1  UNL1        0.0503
     18 C         140.8967  145.3150  158.4053 C.ar    1  UNL1        0.1973
     19 N         140.0763  146.2826  157.6050 N.ar    1  UNL1       -0.2068
     20 O         139.8322  141.5506  165.7842 O.3     1  UNL1       -0.4764
     21 C         140.8894  140.7379  166.4710 C.3     1  UNL1        0.1714
     22 C         141.7237  139.6627  165.8401 C.3     1  UNL1        0.0439
     23 C         142.6479  139.1179  166.8885 C.3     1  UNL1        0.0042
     24 C         142.3848  139.8565  168.1673 C.3     1  UNL1        0.0096
     25 C         141.2980  140.8577  167.9093 C.3     1  UNL1        0.0799
     26 C         140.7212  141.8112  168.9133 C.ar    1  UNL1        0.0603
     27 C         141.1627  143.2268  169.1398 C.ar    1  UNL1        0.0369
     28 C         140.3159  143.8070  170.2335 C.ar    1  UNL1        0.1213
     29 N         139.3511  142.7501  170.6830 N.ar    1  UNL1       -0.1679
     30 N         139.6016  141.5166  169.8670 N.ar    1  UNL1       -0.2527
     31 C         138.8622  140.2168  169.9843 C.3     1  UNL1        0.1533
@<TRIPOS>BOND
     1    14    15    1
     2    15    16   ar
     3    16    17   ar
     4    17    18   ar
     5    18    12    1
     6    12     9    1
     7     9    10    2
     8     9    11    2
     9     9     1    1
    10     1     2   ar
    11     2     3   ar
    12     3     4    1
    13     3     5   ar
    14     5    20    1
    15    21    20    1
    16    21    22    1
    17    22    23    1
    18    23    24    1
    19    24    25    1
    20    25    26    1
    21    26    27   ar
    22    27    28   ar
    23    28    29   ar
    24    29    30   ar
    25    30    31    1
    26     5     6   ar
    27     6     7   ar
    28     7     8    1
    29    18    19   ar
    30    19    15   ar
    31     7     1   ar
    32    25    21    1
    33    30    26   ar
    34    12    13    1
@<TRIPOS>MOLECULE
*****
 31 34 0 0 0
SMALL
GASTEIGER

@<TRIPOS>ATOM
      1 C         140.8672  143.9047  162.0613 C.ar    1  UNL1        0.1549
      2 C         140.2188  142.5699  161.8424 C.ar    1  UNL1        0.0553
      3 C         139.8995  141.6901  163.0145 C.ar    1  UNL1        0.1753
      4 F         139.2510  140.3552  162.7957 F       1  UNL1       -0.2009
      5 C         140.2286  142.1450  164.4055 C.ar    1  UNL1        0.1679
      6 C         140.8770  143.4797  164.6243 C.ar    1  UNL1        0.0702
      7 C         141.1963  144.3596  163.4522 C.ar    1  UNL1        0.1620
      8 F         141.8448  145.6944  163.6710 F       1  UNL1       -0.2026
      9 S         141.1865  144.7846  160.8891 S.O2    1  UNL1        0.0773
     10 O         142.6080  144.3065  160.9175 O.2     1  UNL1       -0.1498
     11 O         139.7651  145.2627  160.8607 O.2     1  UNL1       -0.1498
     12 N         141.5059  145.6644  159.7171 N.pl3   1  UNL1       -0.1925
     13 H         142.1327  146.4163  159.8223 H       1  UNL1        0.1758
     14 C         138.7680  146.2886  155.2454 C.3     1  UNL1        0.0744
     15 C         139.6118  145.6857  156.3292 C.ar    1  UNL1        0.1494
     16 N         140.1725  144.2944  156.3391 N.ar    1  UNL1       -0.1917
     17 S         140.9502  144.1171  157.6094 S.2     1  UNL1        0.0503
     18 C         140.8703  145.3988  158.3846 C.ar    1  UNL1        0.1973
     19 N         140.0431  146.3683  157.5934 N.ar    1  UNL1       -0.2068
     20 O         139.9092  141.2650  165.5776 O.3     1  UNL1       -0.4764
     21 C         141.0142  140.5713  166.3177 C.3     1  UNL1        0.1714
     22 C         141.5553  140.9603  167.6615 C.3     1  UNL1        0.0439
     23 C         142.6476  139.9962  168.0182 C.3     1  UNL1        0.0042
     24 C         142.7816  139.0112  166.8948 C.3     1  UNL1        0.0096
     25 C         141.7721  139.3667  165.8438 C.3     1  UNL1        0.0799
     26 C         141.5581  138.6443  164.5468 C.ar    1  UNL1        0.0603
     27 C         142.5068  138.6181  163.3852 C.ar    1  UNL1        0.0369
     28 C         141.8928  137.7789  162.3041 C.ar    1  UNL1        0.1213
     29 N         140.5646  137.2865  162.7975 N.ar    1  UNL1       -0.1679
     30 N         140.3578  137.8214  164.1836 N.ar    1  UNL1       -0.2527
     31 C         139.1607  137.5762  165.0536 C.3     1  UNL1        0.1533
@<TRIPOS>BOND
     1    14    15    1
     2    15    16   ar
     3    16    17   ar
     4    17    18   ar
     5    18    12    1
     6    12     9    1
     7     9    10    2
     8     9    11    2
     9     9     1    1
    10     1     2   ar
    11     2     3   ar
    12     3     4    1
    13     3     5   ar
    14     5    20    1
    15    21    20    1
    16    21    22    1
    17    22    23    1
    18    23    24    1
    19    24    25    1
    20    25    26    1
    21    26    27   ar
    22    27    28   ar
    23    28    29   ar
    24    29    30   ar
    25    30    31    1
    26     5     6   ar
    27     6     7   ar
    28     7     8    1
    29    18    19   ar
    30    19    15   ar
    31     7     1   ar
    32    25    21    1
    33    30    26   ar
    34    12    13    1
@<TRIPOS>MOLECULE
*****
 31 34 0 0 0
SMALL
GASTEIGER

@<TRIPOS>ATOM
      1 C         141.5464  143.3854  162.6686 C.ar    1  UNL1        0.1549
      2 C         141.3568  143.7619  164.1081 C.ar    1  UNL1        0.0553
      3 C         141.3921  142.7040  165.1709 C.ar    1  UNL1        0.1753
      4 F         141.2026  143.0805  166.6105 F       1  UNL1       -0.2009
      5 C         141.6169  141.2696  164.7942 C.ar    1  UNL1        0.1679
      6 C         141.8065  140.8931  163.3546 C.ar    1  UNL1        0.0702
      7 C         141.7712  141.9510  162.2918 C.ar    1  UNL1        0.1620
      8 F         141.9607  141.5745  160.8522 F       1  UNL1       -0.2026
      9 S         141.5111  144.4433  161.6057 S.O2    1  UNL1        0.0773
     10 O         140.0399  144.6246  161.8351 O.2     1  UNL1       -0.1498
     11 O         142.9823  144.2620  161.3763 O.2     1  UNL1       -0.1498
     12 N         141.4758  145.5012  160.5429 N.pl3   1  UNL1       -0.1925
     13 H         141.5105  146.4525  160.7939 H       1  UNL1        0.1758
     14 C         142.4258  145.1861  155.3583 C.3     1  UNL1        0.0744
     15 C         141.8242  144.9648  156.7145 C.ar    1  UNL1        0.1494
     16 N         140.6792  144.0494  157.0324 N.ar    1  UNL1       -0.1917
     17 S         140.4093  144.1389  158.5052 S.2     1  UNL1        0.0503
     18 C         141.3875  145.1096  159.0975 C.ar    1  UNL1        0.1973
     19 N         142.2620  145.6201  157.9909 N.ar    1  UNL1       -0.2068
     20 O         141.6522  140.2117  165.8570 O.3     1  UNL1       -0.4764
     21 C         140.4230  139.9196  166.6656 C.3     1  UNL1        0.1714
     22 C         140.2743  140.1143  168.1455 C.3     1  UNL1        0.0439
     23 C         138.8861  139.6966  168.5308 C.3     1  UNL1        0.0042
     24 C         138.1769  139.2437  167.2890 C.3     1  UNL1        0.0096
     25 C         139.1268  139.3815  166.1363 C.3     1  UNL1        0.0799
     26 C         138.8321  139.0411  164.7055 C.ar    1  UNL1        0.0603
     27 C         139.0396  137.7048  164.0564 C.ar    1  UNL1        0.0369
     28 C         138.6139  137.8150  162.6223 C.ar    1  UNL1        0.1213
     29 N         138.1433  139.2194  162.3850 N.ar    1  UNL1       -0.1679
     30 N         138.2782  139.9771  163.6726 N.ar    1  UNL1       -0.2527
     31 C         137.9217  141.4180  163.8890 C.3     1  UNL1        0.1533
@<TRIPOS>BOND
     1    14    15    1
     2    15    16   ar
     3    16    17   ar
     4    17    18   ar
     5    18    12    1
     6    12     9    1
     7     9    10    2
     8     9    11    2
     9     9     1    1
    10     1     2   ar
    11     2     3   ar
    12     3     4    1
    13     3     5   ar
    14     5    20    1
    15    21    20    1
    16    21    22    1
    17    22    23    1
    18    23    24    1
    19    24    25    1
    20    25    26    1
    21    26    27   ar
    22    27    28   ar
    23    28    29   ar
    24    29    30   ar
    25    30    31    1
    26     5     6   ar
    27     6     7   ar
    28     7     8    1
    29    18    19   ar
    30    19    15   ar
    31     7     1   ar
    32    25    21    1
    33    30    26   ar
    34    12    13    1
@<TRIPOS>MOLECULE
*****
 31 34 0 0 0
SMALL
GASTEIGER

@<TRIPOS>ATOM
      1 C         139.1446  142.4785  163.1127 C.ar    1  UNL1        0.1549
      2 C         138.4550  141.2538  163.6364 C.ar    1  UNL1        0.0553
      3 C         138.6317  140.8488  165.0698 C.ar    1  UNL1        0.1753
      4 F         137.9421  139.6240  165.5937 F       1  UNL1       -0.2009
      5 C         139.4981  141.6685  165.9795 C.ar    1  UNL1        0.1679
      6 C         140.1877  142.8933  165.4557 C.ar    1  UNL1        0.0702
      7 C         140.0109  143.2983  164.0223 C.ar    1  UNL1        0.1620
      8 F         140.7006  144.5231  163.4985 F       1  UNL1       -0.2026
      9 S         138.9679  142.8836  161.6792 S.O2    1  UNL1        0.0773
     10 O         139.8668  141.7617  161.2514 O.2     1  UNL1       -0.1498
     11 O         138.0689  144.0056  162.1070 O.2     1  UNL1       -0.1498
     12 N         138.7912  143.2886  160.2458 N.pl3   1  UNL1       -0.1925
     13 H         137.9844  143.0144  159.7527 H       1  UNL1        0.1758
     14 C         141.5756  145.7999  156.5281 C.3     1  UNL1        0.0744
     15 C         141.1235  145.2658  157.8548 C.ar    1  UNL1        0.1494
     16 N         141.8029  145.4897  159.1733 N.ar    1  UNL1       -0.1917
     17 S         141.0120  144.7763  160.2294 S.2     1  UNL1        0.0503
     18 C         139.8437  144.1115  159.5637 C.ar    1  UNL1        0.1973
     19 N         139.9125  144.4140  158.0961 N.ar    1  UNL1       -0.2068
     20 O         139.6748  141.2634  167.4130 O.3     1  UNL1       -0.4764
     21 C         140.8157  141.8176  168.2137 C.3     1  UNL1        0.1714
     22 C         140.7041  142.7832  169.3562 C.3     1  UNL1        0.0439
     23 C         142.0880  143.0658  169.8612 C.3     1  UNL1        0.0042
     24 C         143.0549  142.2748  169.0308 C.3     1  UNL1        0.0096
     25 C         142.2686  141.5034  168.0126 C.3     1  UNL1        0.0799
     26 C         142.8356  140.5799  166.9755 C.ar    1  UNL1        0.0603
     27 C         142.8148  139.0809  167.0237 C.ar    1  UNL1        0.0369
     28 C         143.4894  138.5679  165.7860 C.ar    1  UNL1        0.1213
     29 N         143.9272  139.7499  164.9729 N.ar    1  UNL1       -0.1679
     30 N         143.5231  140.9935  165.7081 N.ar    1  UNL1       -0.2527
     31 C         143.7642  142.4030  165.2552 C.3     1  UNL1        0.1533
@<TRIPOS>BOND
     1    14    15    1
     2    15    16   ar
     3    16    17   ar
     4    17    18   ar
     5    18    12    1
     6    12     9    1
     7     9    10    2
     8     9    11    2
     9     9     1    1
    10     1     2   ar
    11     2     3   ar
    12     3     4    1
    13     3     5   ar
    14     5    20    1
    15    21    20    1
    16    21    22    1
    17    22    23    1
    18    23    24    1
    19    24    25    1
    20    25    26    1
    21    26    27   ar
    22    27    28   ar
    23    28    29   ar
    24    29    30   ar
    25    30    31    1
    26     5     6   ar
    27     6     7   ar
    28     7     8    1
    29    18    19   ar
    30    19    15   ar
    31     7     1   ar
    32    25    21    1
    33    30    26   ar
    34    12    13    1
@<TRIPOS>MOLECULE
*****
 31 34 0 0 0
SMALL
GASTEIGER

@<TRIPOS>ATOM
      1 C         140.1706  143.5857  163.3144 C.ar    1  UNL1        0.1549
      2 C         140.2658  143.9881  164.7562 C.ar    1  UNL1        0.0553
      3 C         139.9759  142.9871  165.8349 C.ar    1  UNL1        0.1753
      4 F         140.0711  143.3895  167.2769 F       1  UNL1       -0.2009
      5 C         139.5907  141.5836  165.4719 C.ar    1  UNL1        0.1679
      6 C         139.4955  141.1811  164.0301 C.ar    1  UNL1        0.0702
      7 C         139.7854  142.1822  162.9513 C.ar    1  UNL1        0.1620
      8 F         139.6902  141.7797  161.5094 F       1  UNL1       -0.2026
      9 S         140.4605  144.5868  162.2355 S.O2    1  UNL1        0.0773
     10 O         141.8790  144.1038  162.1686 O.2     1  UNL1       -0.1498
     11 O         139.0420  145.0697  162.3023 O.2     1  UNL1       -0.1498
     12 N         140.7505  145.5878  161.1567 N.pl3   1  UNL1       -0.1925
     13 H         140.8729  146.5373  161.3862 H       1  UNL1        0.1758
     14 C         142.3102  145.1594  156.1303 C.3     1  UNL1        0.0744
     15 C         141.5710  144.9452  157.4177 C.ar    1  UNL1        0.1494
     16 N         140.4557  143.9675  157.6420 N.ar    1  UNL1       -0.1917
     17 S         140.0126  144.0892  159.0698 S.2     1  UNL1        0.0503
     18 C         140.8540  145.1421  159.7281 C.ar    1  UNL1        0.1973
     19 N         141.8171  145.6712  158.7071 N.ar    1  UNL1       -0.2068
     20 O         139.3008  140.5825  166.5507 O.3     1  UNL1       -0.4764
     21 C         140.3667  140.2169  167.5407 C.3     1  UNL1        0.1714
     22 C         140.2364  140.2641  169.0343 C.3     1  UNL1        0.0439
     23 C         141.5392  139.8163  169.6277 C.3     1  UNL1        0.0042
     24 C         142.4747  139.4923  168.5008 C.3     1  UNL1        0.0096
     25 C         141.7500  139.7399  167.2110 C.3     1  UNL1        0.0799
     26 C         142.3104  139.5447  165.8334 C.ar    1  UNL1        0.0603
     27 C         142.1647  138.3139  164.9885 C.ar    1  UNL1        0.0369
     28 C         142.8791  138.5546  163.6917 C.ar    1  UNL1        0.1213
     29 N         143.4663  139.9342  163.7350 N.ar    1  UNL1       -0.1679
     30 N         143.1147  140.5462  165.0587 N.ar    1  UNL1       -0.2527
     31 C         143.5000  141.9186  165.5257 C.3     1  UNL1        0.1533
@<TRIPOS>BOND
     1    14    15    1
     2    15    16   ar
     3    16    17   ar
     4    17    18   ar
     5    18    12    1
     6    12     9    1
     7     9    10    2
     8     9    11    2
     9     9     1    1
    10     1     2   ar
    11     2     3   ar
    12     3     4    1
    13     3     5   ar
    14     5    20    1
    15    21    20    1
    16    21    22    1
    17    22    23    1
    18    23    24    1
    19    24    25    1
    20    25    26    1
    21    26    27   ar
    22    27    28   ar
    23    28    29   ar
    24    29    30   ar
    25    30    31    1
    26     5     6   ar
    27     6     7   ar
    28     7     8    1
    29    18    19   ar
    30    19    15   ar
    31     7     1   ar
    32    25    21    1
    33    30    26   ar
    34    12    13    1
@<TRIPOS>MOLECULE
*****
 31 34 0 0 0
SMALL
GASTEIGER

@<TRIPOS>ATOM
      1 C         139.3247  139.2282  159.9650 C.ar    1  UNL1        0.1549
      2 C         140.5895  138.6336  160.5098 C.ar    1  UNL1        0.0553
      3 C         140.5976  138.0082  161.8732 C.ar    1  UNL1        0.1753
      4 F         141.8624  137.4135  162.4180 F       1  UNL1       -0.2009
      5 C         139.3410  137.9775  162.6917 C.ar    1  UNL1        0.1679
      6 C         138.0763  138.5721  162.1469 C.ar    1  UNL1        0.0702
      7 C         138.0682  139.1975  160.7836 C.ar    1  UNL1        0.1620
      8 F         136.8034  139.7921  160.2387 F       1  UNL1       -0.2026
      9 S         139.3166  139.8536  158.6016 S.O2    1  UNL1        0.0773
     10 O         139.3718  141.2161  159.2263 O.2     1  UNL1       -0.1498
     11 O         139.2613  138.4910  157.9768 O.2     1  UNL1       -0.1498
     12 N         139.3084  140.4790  157.2382 N.pl3   1  UNL1       -0.1925
     13 H         140.1502  140.7927  156.8355 H       1  UNL1        0.1758
     14 C         134.1583  140.5772  156.0769 C.3     1  UNL1        0.0744
     15 C         135.6503  140.6716  155.9547 C.ar    1  UNL1        0.1494
     16 N         136.4122  141.0350  154.7146 N.ar    1  UNL1       -0.1917
     17 S         137.8752  141.0071  155.0445 S.2     1  UNL1        0.0503
     18 C         138.0176  140.6264  156.4884 C.ar    1  UNL1        0.1973
     19 N         136.6426  140.4190  157.0510 N.ar    1  UNL1       -0.2068
     20 O         139.3492  137.3521  164.0552 O.3     1  UNL1       -0.4764
     21 C         139.2595  138.2168  165.2775 C.3     1  UNL1        0.1714
     22 C         138.0798  138.3228  166.1979 C.3     1  UNL1        0.0439
     23 C         138.4250  139.2989  167.2833 C.3     1  UNL1        0.0042
     24 C         139.8180  139.7961  167.0337 C.3     1  UNL1        0.0096
     25 C         140.3338  139.1273  165.7941 C.3     1  UNL1        0.0799
     26 C         141.6863  139.3330  165.1790 C.ar    1  UNL1        0.0603
     27 C         142.9293  138.5584  165.5031 C.ar    1  UNL1        0.0369
     28 C         144.0445  139.0962  164.6562 C.ar    1  UNL1        0.1213
     29 N         143.4908  140.2030  163.8088 N.ar    1  UNL1       -0.1679
     30 N         142.0333  140.3494  164.1319 N.ar    1  UNL1       -0.2527
     31 C         141.0888  141.3386  163.5160 C.3     1  UNL1        0.1533
@<TRIPOS>BOND
     1    14    15    1
     2    15    16   ar
     3    16    17   ar
     4    17    18   ar
     5    18    12    1
     6    12     9    1
     7     9    10    2
     8     9    11    2
     9     9     1    1
    10     1     2   ar
    11     2     3   ar
    12     3     4    1
    13     3     5   ar
    14     5    20    1
    15    21    20    1
    16    21    22    1
    17    22    23    1
    18    23    24    1
    19    24    25    1
    20    25    26    1
    21    26    27   ar
    22    27    28   ar
    23    28    29   ar
    24    29    30   ar
    25    30    31    1
    26     5     6   ar
    27     6     7   ar
    28     7     8    1
    29    18    19   ar
    30    19    15   ar
    31     7     1   ar
    32    25    21    1
    33    30    26   ar
    34    12    13    1
@<TRIPOS>MOLECULE
*****
 31 34 0 0 0
SMALL
GASTEIGER

@<TRIPOS>ATOM
      1 C         143.2539  139.0434  162.5067 C.ar    1  UNL1        0.1549
      2 C         142.0985  138.2833  163.0873 C.ar    1  UNL1        0.0553
      3 C         141.8257  138.3438  164.5611 C.ar    1  UNL1        0.1753
      4 F         140.6702  137.5836  165.1418 F       1  UNL1       -0.2009
      5 C         142.7084  139.1644  165.4541 C.ar    1  UNL1        0.1679
      6 C         143.8638  139.9245  164.8734 C.ar    1  UNL1        0.0702
      7 C         144.1365  139.8640  163.3997 C.ar    1  UNL1        0.1620
      8 F         145.2920  140.6241  162.8189 F       1  UNL1       -0.2026
      9 S         143.5267  138.9829  161.0329 S.O2    1  UNL1        0.0773
     10 O         143.0748  140.4061  160.8909 O.2     1  UNL1       -0.1498
     11 O         143.9785  137.5597  161.1748 O.2     1  UNL1       -0.1498
     12 N         143.7994  138.9225  159.5591 N.pl3   1  UNL1       -0.1925
     13 H         144.6491  139.2678  159.2012 H       1  UNL1        0.1758
     14 C         141.5484  136.0977  155.7075 C.3     1  UNL1        0.0744
     15 C         141.7430  137.0375  156.8603 C.ar    1  UNL1        0.1494
     16 N         140.6677  137.8293  157.5435 N.ar    1  UNL1       -0.1917
     17 S         141.3071  138.6318  158.6377 S.2     1  UNL1        0.0503
     18 C         142.7776  138.3360  158.6307 C.ar    1  UNL1        0.1973
     19 N         143.0471  137.3507  157.5322 N.ar    1  UNL1       -0.2068
     20 O         142.4356  139.2248  166.9279 O.3     1  UNL1       -0.4764
     21 C         142.0308  140.5220  167.5631 C.3     1  UNL1        0.1714
     22 C         142.7124  141.1866  168.7223 C.3     1  UNL1        0.0439
     23 C         141.9762  142.4577  169.0263 C.3     1  UNL1        0.0042
     24 C         140.8395  142.5786  168.0549 C.3     1  UNL1        0.0096
     25 C         140.8733  141.3822  167.1507 C.3     1  UNL1        0.0799
     26 C         139.9174  141.0964  166.0306 C.ar    1  UNL1        0.0603
     27 C         139.9032  141.7695  164.6902 C.ar    1  UNL1        0.0369
     28 C         138.7848  141.1764  163.8855 C.ar    1  UNL1        0.1213
     29 N         138.1078  140.1368  164.7286 N.ar    1  UNL1       -0.1679
     30 N         138.8078  140.0874  166.0544 N.ar    1  UNL1       -0.2527
     31 C         138.4592  139.1870  167.2023 C.3     1  UNL1        0.1533
@<TRIPOS>BOND
     1    14    15    1
     2    15    16   ar
     3    16    17   ar
     4    17    18   ar
     5    18    12    1
     6    12     9    1
     7     9    10    2
     8     9    11    2
     9     9     1    1
    10     1     2   ar
    11     2     3   ar
    12     3     4    1
    13     3     5   ar
    14     5    20    1
    15    21    20    1
    16    21    22    1
    17    22    23    1
    18    23    24    1
    19    24    25    1
    20    25    26    1
    21    26    27   ar
    22    27    28   ar
    23    28    29   ar
    24    29    30   ar
    25    30    31    1
    26     5     6   ar
    27     6     7   ar
    28     7     8    1
    29    18    19   ar
    30    19    15   ar
    31     7     1   ar
    32    25    21    1
    33    30    26   ar
    34    12    13    1
