@<TRIPOS>MOLECULE
*****
 19 20 0 0 0
SMALL
GASTEIGER

@<TRIPOS>ATOM
      1 C         140.2378  142.0897  169.2607 C.3     1  UNL1        0.0797
      2 C         139.6246  140.7221  169.3198 C.3     1  UNL1        0.0305
      3 C         139.6553  139.8335  168.1118 C.3     1  UNL1        0.0913
      4 N         140.2992  140.3125  166.8446 N.pl3   1  UNL1       -0.3061
      5 C         140.9124  141.6801  166.7854 C.3     1  UNL1        0.0913
      6 C         140.8817  142.5687  167.9935 C.3     1  UNL1        0.0305
      7 C         140.3298  139.4239  165.6365 C.ar    1  UNL1        0.0723
      8 C         139.1562  139.3861  164.7032 C.ar    1  UNL1        0.0909
      9 CL        137.9517  140.2370  164.9780 Cl      1  UNL1       -0.0793
     10 C         139.1869  138.4975  163.4951 C.ar    1  UNL1        0.1115
     11 N         140.3912  137.6467  163.2203 N.ar    1  UNL1       -0.2405
     12 C         141.5649  137.6844  164.1536 C.ar    1  UNL1        0.1115
     13 C         141.5342  138.5730  165.3617 C.ar    1  UNL1        0.0909
     14 CL        142.7079  138.6108  166.2950 Cl      1  UNL1       -0.0793
     15 N         140.0490  144.4610  170.3054 N.am    1  UNL1       -0.3288
     16 C         140.2071  142.9783  170.4688 C.2     1  UNL1        0.2190
     17 O         140.3345  142.3843  171.8402 O.2     1  UNL1       -0.2753
     18 H         140.0289  145.0442  171.0983 H       1  UNL1        0.1449
     19 H         139.9654  144.8509  169.4053 H       1  UNL1        0.1449
@<TRIPOS>BOND
     1    15    16   am
     2    16    17    2
     3    16     1    1
     4     1     2    1
     5     2     3    1
     6     3     4    1
     7     4     7    1
     8     7     8   ar
     9     8     9    1
    10     8    10   ar
    11    10    11   ar
    12    11    12   ar
    13    12    13   ar
    14    13    14    1
    15     4     5    1
    16     5     6    1
    17     6     1    1
    18    13     7   ar
    19    15    18    1
    20    15    19    1
@<TRIPOS>MOLECULE
*****
 19 20 0 0 0
SMALL
GASTEIGER

@<TRIPOS>ATOM
      1 C         140.2239  142.1077  169.2686 C.3     1  UNL1        0.0797
      2 C         139.6302  140.7318  169.3338 C.3     1  UNL1        0.0305
      3 C         139.6636  139.8425  168.1263 C.3     1  UNL1        0.0913
      4 N         140.2908  140.3291  166.8536 N.pl3   1  UNL1       -0.3061
      5 C         140.8845  141.7050  166.7884 C.3     1  UNL1        0.0913
      6 C         140.8511  142.5943  167.9959 C.3     1  UNL1        0.0305
      7 C         140.3242  139.4398  165.6461 C.ar    1  UNL1        0.0723
      8 C         141.5291  138.5888  165.3746 C.ar    1  UNL1        0.0909
      9 CL        142.7007  138.6270  166.3106 Cl      1  UNL1       -0.0793
     10 C         141.5626  137.6995  164.1671 C.ar    1  UNL1        0.1115
     11 N         140.3911  137.6613  163.2311 N.ar    1  UNL1       -0.2405
     12 C         139.1861  138.5123  163.5027 C.ar    1  UNL1        0.1115
     13 C         139.1527  139.4016  164.7102 C.ar    1  UNL1        0.0909
     14 CL        137.9477  140.2527  164.9817 Cl      1  UNL1       -0.0793
     15 N         140.0551  144.4816  170.3107 N.am    1  UNL1       -0.3288
     16 C         140.1905  142.9970  170.4761 C.2     1  UNL1        0.2190
     17 O         140.2925  142.4016  171.8491 O.2     1  UNL1       -0.2753
     18 H         140.0332  145.0653  171.1032 H       1  UNL1        0.1449
     19 H         139.9882  144.8724  169.4095 H       1  UNL1        0.1449
@<TRIPOS>BOND
     1    15    16   am
     2    16    17    2
     3    16     1    1
     4     1     2    1
     5     2     3    1
     6     3     4    1
     7     4     7    1
     8     7     8   ar
     9     8     9    1
    10     8    10   ar
    11    10    11   ar
    12    11    12   ar
    13    12    13   ar
    14    13    14    1
    15     4     5    1
    16     5     6    1
    17     6     1    1
    18    13     7   ar
    19    15    18    1
    20    15    19    1
@<TRIPOS>MOLECULE
*****
 19 20 0 0 0
SMALL
GASTEIGER

@<TRIPOS>ATOM
      1 C         141.0400  143.0489  169.1059 C.3     1  UNL1        0.0797
      2 C         142.4771  142.6782  169.3233 C.3     1  UNL1        0.0305
      3 C         143.3005  142.1648  168.1794 C.3     1  UNL1        0.0913
      4 N         142.6867  142.0220  166.8182 N.pl3   1  UNL1       -0.3061
      5 C         141.2496  142.3927  166.6009 C.3     1  UNL1        0.0913
      6 C         140.4262  142.9061  167.7447 C.3     1  UNL1        0.0305
      7 C         143.5101  141.5086  165.6744 C.ar    1  UNL1        0.0723
      8 C         144.3488  142.4563  164.8692 C.ar    1  UNL1        0.0909
      9 CL        144.3641  143.9176  165.2078 Cl      1  UNL1       -0.0793
     10 C         145.1722  141.9429  163.7253 C.ar    1  UNL1        0.1115
     11 N         145.1569  140.4817  163.3866 N.ar    1  UNL1       -0.2405
     12 C         144.3182  139.5340  164.1918 C.ar    1  UNL1        0.1115
     13 C         143.4948  140.0474  165.3357 C.ar    1  UNL1        0.0909
     14 CL        142.6561  139.0996  166.1409 Cl      1  UNL1       -0.0793
     15 N         139.6956  142.6106  171.2855 N.am    1  UNL1       -0.3288
     16 C         140.2166  143.5623  170.2498 C.2     1  UNL1        0.2190
     17 O         139.9141  145.0275  170.3580 O.2     1  UNL1       -0.2753
     18 H         139.1552  142.9476  172.0363 H       1  UNL1        0.1449
     19 H         139.8941  141.6489  171.2145 H       1  UNL1        0.1449
@<TRIPOS>BOND
     1    15    16   am
     2    16    17    2
     3    16     1    1
     4     1     2    1
     5     2     3    1
     6     3     4    1
     7     4     7    1
     8     7     8   ar
     9     8     9    1
    10     8    10   ar
    11    10    11   ar
    12    11    12   ar
    13    12    13   ar
    14    13    14    1
    15     4     5    1
    16     5     6    1
    17     6     1    1
    18    13     7   ar
    19    15    18    1
    20    15    19    1
@<TRIPOS>MOLECULE
*****
 19 20 0 0 0
SMALL
GASTEIGER

@<TRIPOS>ATOM
      1 C         141.0037  142.9339  168.8945 C.3     1  UNL1        0.0797
      2 C         140.4491  142.8770  167.5019 C.3     1  UNL1        0.0305
      3 C         141.3211  142.4336  166.3649 C.3     1  UNL1        0.0913
      4 N         142.7477  142.0471  166.6203 N.pl3   1  UNL1       -0.3061
      5 C         143.3023  142.1040  168.0128 C.3     1  UNL1        0.0913
      6 C         142.4303  142.5474  169.1499 C.3     1  UNL1        0.0305
      7 C         143.6198  141.6037  165.4832 C.ar    1  UNL1        0.0723
      8 C         143.6658  140.1559  165.0936 C.ar    1  UNL1        0.0909
      9 CL        142.8397  139.1514  165.8412 Cl      1  UNL1       -0.0793
     10 C         144.5378  139.7125  163.9566 C.ar    1  UNL1        0.1115
     11 N         145.3638  140.7169  163.2090 N.ar    1  UNL1       -0.2405
     12 C         145.3178  142.1647  163.5985 C.ar    1  UNL1        0.1115
     13 C         144.4458  142.6081  164.7356 C.ar    1  UNL1        0.0909
     14 CL        144.3998  144.0559  165.1252 Cl      1  UNL1       -0.0793
     15 N         140.0000  144.8370  170.3508 N.am    1  UNL1       -0.3288
     16 C         140.1316  143.3773  170.0315 C.2     1  UNL1        0.2190
     17 O         139.3912  142.3610  170.8494 O.2     1  UNL1       -0.2753
     18 H         139.4277  145.1280  171.0971 H       1  UNL1        0.1449
     19 H         140.4860  145.5040  169.8140 H       1  UNL1        0.1449
@<TRIPOS>BOND
     1    15    16   am
     2    16    17    2
     3    16     1    1
     4     1     2    1
     5     2     3    1
     6     3     4    1
     7     4     7    1
     8     7     8   ar
     9     8     9    1
    10     8    10   ar
    11    10    11   ar
    12    11    12   ar
    13    12    13   ar
    14    13    14    1
    15     4     5    1
    16     5     6    1
    17     6     1    1
    18    13     7   ar
    19    15    18    1
    20    15    19    1
@<TRIPOS>MOLECULE
*****
 19 20 0 0 0
SMALL
GASTEIGER

@<TRIPOS>ATOM
      1 C         141.8683  139.5817  169.0188 C.3     1  UNL1        0.0797
      2 C         140.4302  139.9487  169.2361 C.3     1  UNL1        0.0305
      3 C         139.5866  140.3939  168.0785 C.3     1  UNL1        0.0913
      4 N         140.1810  140.4722  166.7035 N.pl3   1  UNL1       -0.3061
      5 C         141.6191  140.1053  166.4862 C.3     1  UNL1        0.0913
      6 C         142.4627  139.6600  167.6438 C.3     1  UNL1        0.0305
      7 C         139.3374  140.9175  165.5459 C.ar    1  UNL1        0.0723
      8 C         138.6029  139.9039  164.7195 C.ar    1  UNL1        0.0909
      9 CL        138.7119  138.4449  165.0507 Cl      1  UNL1       -0.0793
     10 C         137.7592  140.3491  163.5619 C.ar    1  UNL1        0.1115
     11 N         137.6502  141.8080  163.2307 N.ar    1  UNL1       -0.2405
     12 C         138.3847  142.8216  164.0571 C.ar    1  UNL1        0.1115
     13 C         139.2283  142.3763  165.2147 C.ar    1  UNL1        0.0909
     14 CL        139.9629  143.3901  166.0411 Cl      1  UNL1       -0.0793
     15 N         143.0347  140.0969  171.2823 N.am    1  UNL1       -0.3288
     16 C         142.7119  139.1365  170.1764 C.2     1  UNL1        0.2190
     17 O         143.2327  137.7308  170.2280 O.2     1  UNL1       -0.2753
     18 H         143.5884  139.8047  172.0421 H       1  UNL1        0.1449
     19 H         142.6929  141.0196  171.2485 H       1  UNL1        0.1449
@<TRIPOS>BOND
     1    15    16   am
     2    16    17    2
     3    16     1    1
     4     1     2    1
     5     2     3    1
     6     3     4    1
     7     4     7    1
     8     7     8   ar
     9     8     9    1
    10     8    10   ar
    11    10    11   ar
    12    11    12   ar
    13    12    13   ar
    14    13    14    1
    15     4     5    1
    16     5     6    1
    17     6     1    1
    18    13     7   ar
    19    15    18    1
    20    15    19    1
@<TRIPOS>MOLECULE
*****
 19 20 0 0 0
SMALL
GASTEIGER

@<TRIPOS>ATOM
      1 C         140.5224  140.0488  169.0708 C.3     1  UNL1        0.0797
      2 C         141.9401  139.5601  169.0371 C.3     1  UNL1        0.0305
      3 C         142.6761  139.4830  167.7324 C.3     1  UNL1        0.0913
      4 N         141.9943  139.8947  166.4613 N.pl3   1  UNL1       -0.3061
      5 C         140.5766  140.3834  166.4949 C.3     1  UNL1        0.0913
      6 C         139.8406  140.4605  167.7997 C.3     1  UNL1        0.0305
      7 C         142.7303  139.8176  165.1565 C.ar    1  UNL1        0.0723
      8 C         142.5775  138.6104  164.2794 C.ar    1  UNL1        0.0909
      9 CL        141.6887  137.4803  164.7070 Cl      1  UNL1       -0.0793
     10 C         143.3135  138.5333  162.9747 C.ar    1  UNL1        0.1115
     11 N         144.2023  139.6634  162.5470 N.ar    1  UNL1       -0.2405
     12 C         144.3551  140.8706  163.4241 C.ar    1  UNL1        0.1115
     13 C         143.6191  140.9476  164.7289 C.ar    1  UNL1        0.0909
     14 CL        143.7720  142.1549  165.6060 Cl      1  UNL1       -0.0793
     15 N         140.5366  140.4023  171.6446 N.am    1  UNL1       -0.3288
     16 C         139.7864  140.1259  170.3755 C.2     1  UNL1        0.2190
     17 O         138.3001  139.9266  170.4112 O.2     1  UNL1       -0.2753
     18 H         140.0535  140.4529  172.5010 H       1  UNL1        0.1449
     19 H         141.5121  140.5331  171.6213 H       1  UNL1        0.1449
@<TRIPOS>BOND
     1    15    16   am
     2    16    17    2
     3    16     1    1
     4     1     2    1
     5     2     3    1
     6     3     4    1
     7     4     7    1
     8     7     8   ar
     9     8     9    1
    10     8    10   ar
    11    10    11   ar
    12    11    12   ar
    13    12    13   ar
    14    13    14    1
    15     4     5    1
    16     5     6    1
    17     6     1    1
    18    13     7   ar
    19    15    18    1
    20    15    19    1
@<TRIPOS>MOLECULE
*****
 19 20 0 0 0
SMALL
GASTEIGER

@<TRIPOS>ATOM
      1 C         140.5300  140.0395  169.0830 C.3     1  UNL1        0.0797
      2 C         139.8543  140.4752  167.8167 C.3     1  UNL1        0.0305
      3 C         140.5867  140.3955  166.5101 C.3     1  UNL1        0.0913
      4 N         141.9947  139.8801  166.4697 N.pl3   1  UNL1       -0.3061
      5 C         142.6704  139.4443  167.7360 C.3     1  UNL1        0.0913
      6 C         141.9380  139.5240  169.0426 C.3     1  UNL1        0.0305
      7 C         142.7271  139.8004  165.1631 C.ar    1  UNL1        0.0723
      8 C         143.6141  140.9299  164.7303 C.ar    1  UNL1        0.0909
      9 CL        143.7688  142.1392  165.6043 Cl      1  UNL1       -0.0793
     10 C         144.3464  140.8502  163.4237 C.ar    1  UNL1        0.1115
     11 N         144.1918  139.6410  162.5498 N.ar    1  UNL1       -0.2405
     12 C         143.3048  138.5114  162.9825 C.ar    1  UNL1        0.1115
     13 C         142.5724  138.5911  164.2892 C.ar    1  UNL1        0.0909
     14 CL        141.6854  137.4615  164.7219 Cl      1  UNL1       -0.0793
     15 N         140.5474  140.4257  171.6521 N.am    1  UNL1       -0.3288
     16 C         139.7977  140.1192  170.3896 C.2     1  UNL1        0.2190
     17 O         138.3156  139.8923  170.4338 O.2     1  UNL1       -0.2753
     18 H         140.0667  140.4780  172.5097 H       1  UNL1        0.1449
     19 H         141.5201  140.5746  171.6231 H       1  UNL1        0.1449
@<TRIPOS>BOND
     1    15    16   am
     2    16    17    2
     3    16     1    1
     4     1     2    1
     5     2     3    1
     6     3     4    1
     7     4     7    1
     8     7     8   ar
     9     8     9    1
    10     8    10   ar
    11    10    11   ar
    12    11    12   ar
    13    12    13   ar
    14    13    14    1
    15     4     5    1
    16     5     6    1
    17     6     1    1
    18    13     7   ar
    19    15    18    1
    20    15    19    1
@<TRIPOS>MOLECULE
*****
 19 20 0 0 0
SMALL
GASTEIGER

@<TRIPOS>ATOM
      1 C         143.9723  140.2987  164.8173 C.3     1  UNL1        0.0797
      2 C         143.4040  141.6240  165.2301 C.3     1  UNL1        0.0305
      3 C         142.5655  141.7271  166.4696 C.3     1  UNL1        0.0913
      4 N         142.2954  140.5050  167.2962 N.pl3   1  UNL1       -0.3061
      5 C         142.8637  139.1797  166.8833 C.3     1  UNL1        0.0913
      6 C         143.7022  139.0765  165.6439 C.3     1  UNL1        0.0305
      7 C         141.4569  140.6082  168.5357 C.ar    1  UNL1        0.0723
      8 C         142.0774  141.0557  169.8259 C.ar    1  UNL1        0.0909
      9 CL        143.5365  141.4001  169.8766 Cl      1  UNL1       -0.0793
     10 C         141.2389  141.1589  171.0653 C.ar    1  UNL1        0.1115
     11 N         139.7799  140.8145  171.0146 N.ar    1  UNL1       -0.2405
     12 C         139.1594  140.3669  169.7245 C.ar    1  UNL1        0.1115
     13 C         139.9979  140.2638  168.4850 C.ar    1  UNL1        0.0909
     14 CL        139.3773  139.8162  167.1948 Cl      1  UNL1       -0.0793
     15 N         144.6046  139.0551  162.6255 N.am    1  UNL1       -0.3288
     16 C         144.8108  140.1955  163.5778 C.2     1  UNL1        0.2190
     17 O         145.8556  141.2328  163.2906 O.2     1  UNL1       -0.2753
     18 H         145.1549  138.9874  161.8120 H       1  UNL1        0.1449
     19 H         143.9189  138.3743  162.8140 H       1  UNL1        0.1449
@<TRIPOS>BOND
     1    15    16   am
     2    16    17    2
     3    16     1    1
     4     1     2    1
     5     2     3    1
     6     3     4    1
     7     4     7    1
     8     7     8   ar
     9     8     9    1
    10     8    10   ar
    11    10    11   ar
    12    11    12   ar
    13    12    13   ar
    14    13    14    1
    15     4     5    1
    16     5     6    1
    17     6     1    1
    18    13     7   ar
    19    15    18    1
    20    15    19    1
@<TRIPOS>MOLECULE
*****
 19 20 0 0 0
SMALL
GASTEIGER

@<TRIPOS>ATOM
      1 C         139.4247  140.0816  168.1569 C.3     1  UNL1        0.0797
      2 C         140.3516  140.7331  167.1739 C.3     1  UNL1        0.0305
      3 C         140.1547  140.5196  165.7023 C.3     1  UNL1        0.0913
      4 N         139.0309  139.6546  165.2137 N.pl3   1  UNL1       -0.3061
      5 C         138.1040  139.0031  166.1968 C.3     1  UNL1        0.0913
      6 C         138.3009  139.2166  167.6684 C.3     1  UNL1        0.0305
      7 C         138.8339  139.4410  163.7421 C.ar    1  UNL1        0.0723
      8 C         139.4799  138.2711  163.0609 C.ar    1  UNL1        0.0909
      9 CL        140.3228  137.3147  163.8514 Cl      1  UNL1       -0.0793
     10 C         139.2830  138.0576  161.5893 C.ar    1  UNL1        0.1115
     11 N         138.4401  139.0140  160.7989 N.ar    1  UNL1       -0.2405
     12 C         137.7941  140.1839  161.4801 C.ar    1  UNL1        0.1115
     13 C         137.9911  140.3974  162.9517 C.ar    1  UNL1        0.0909
     14 CL        137.3451  141.5674  163.6328 Cl      1  UNL1       -0.0793
     15 N         140.6045  139.4507  170.3840 N.am    1  UNL1       -0.3288
     16 C         139.6217  140.2951  169.6285 C.2     1  UNL1        0.2190
     17 O         138.8358  141.3531  170.3447 O.2     1  UNL1       -0.2753
     18 H         140.7338  139.5908  171.3499 H       1  UNL1        0.1449
     19 H         141.1204  138.7562  169.9140 H       1  UNL1        0.1449
@<TRIPOS>BOND
     1    15    16   am
     2    16    17    2
     3    16     1    1
     4     1     2    1
     5     2     3    1
     6     3     4    1
     7     4     7    1
     8     7     8   ar
     9     8     9    1
    10     8    10   ar
    11    10    11   ar
    12    11    12   ar
    13    12    13   ar
    14    13    14    1
    15     4     5    1
    16     5     6    1
    17     6     1    1
    18    13     7   ar
    19    15    18    1
    20    15    19    1
