@<TRIPOS>MOLECULE
*****
 33 37 0 0 0
SMALL
GASTEIGER

@<TRIPOS>ATOM
      1 C         141.5252  138.5025  159.5975 C.ar    1  UNL1        0.0839
      2 C         140.0379  138.5876  159.4227 C.ar    1  UNL1        0.0192
      3 C         139.1314  138.3810  160.5998 C.ar    1  UNL1        0.0030
      4 C         139.7122  138.0892  161.9516 C.ar    1  UNL1        0.0174
      5 C         138.8056  137.8826  163.1287 C.ar    1  UNL1       -0.0027
      6 C         139.3864  137.5908  164.4806 C.ar    1  UNL1       -0.0207
      7 C         140.8738  137.5057  164.6554 C.ar    1  UNL1       -0.0027
      8 C         141.7803  137.7124  163.4783 C.ar    1  UNL1        0.0188
      9 C         141.1995  138.0041  162.1265 C.ar    1  UNL1        0.0812
     10 N         142.1060  138.2108  160.9494 N.ar    1  UNL1       -0.2453
     11 N         143.9400  139.7378  156.8211 N.ar    1  UNL1       -0.2145
     12 N         143.7138  138.3167  156.3973 N.ar    1  UNL1       -0.1624
     13 C         142.7817  137.6811  157.3858 C.ar    1  UNL1        0.1232
     14 C         142.4318  138.7092  158.4205 C.ar    1  UNL1        0.0522
     15 C         143.1477  139.9803  158.0714 C.ar    1  UNL1        0.0655
     16 C         143.0827  141.2679  158.8381 C.3     1  UNL1        0.0523
     17 C         146.5392  142.7451  154.7116 C.ar    1  UNL1        0.2439
     18 C         145.5015  141.9812  153.9438 C.ar    1  UNL1        0.0624
     19 C         144.6351  140.9787  154.6469 C.ar    1  UNL1        0.0454
     20 C         144.8064  140.7402  156.1179 C.ar    1  UNL1        0.1848
     21 N         145.8441  141.5041  156.8857 N.ar    1  UNL1       -0.1255
     22 N         146.7105  142.5065  156.1826 N.ar    1  UNL1       -0.1088
     23 O         147.4056  143.7475  154.0084 O.3     1  UNL1       -0.4593
     24 C         149.4217  142.1187  153.8290 C.3     1  UNL1        0.0512
     25 C         148.6559  143.2999  153.3111 C.3     1  UNL1        0.2073
     26 C         138.4799  137.3842  165.6576 C.3     1  UNL1        0.0437
     27 C         138.0103  138.5624  166.4586 C.3     1  UNL1        0.0768
     28 N         138.9075  139.7504  166.6418 N.3     1  UNL1       -0.2737
     29 C         139.8898  139.9496  167.7577 C.3     1  UNL1        0.0721
     30 C         140.5694  141.2701  167.5469 C.3     1  UNL1        0.0187
     31 C         140.0070  141.8869  166.3005 C.3     1  UNL1        0.0174
     32 C         138.9799  140.9477  165.7412 C.3     1  UNL1        0.0576
     33 C         138.1679  141.1673  164.4993 C.3     1  UNL1        0.0173
@<TRIPOS>BOND
     1    24    25    1
     2    25    23    1
     3    23    17    1
     4    17    18   ar
     5    18    19   ar
     6    19    20   ar
     7    20    11    1
     8    11    12   ar
     9    12    13   ar
    10    13    14   ar
    11    14     1    1
    12     1     2   ar
    13     2     3   ar
    14     3     4   ar
    15     4     5   ar
    16     5     6   ar
    17     6    26    1
    18    26    27    1
    19    27    28    1
    20    28    29    1
    21    29    30    1
    22    30    31    1
    23    31    32    1
    24    32    33    1
    25     6     7   ar
    26     7     8   ar
    27     8     9   ar
    28     9    10   ar
    29    14    15   ar
    30    15    16    1
    31    20    21   ar
    32    21    22   ar
    33    22    17   ar
    34    15    11   ar
    35    10     1   ar
    36     9     4   ar
    37    32    28    1
@<TRIPOS>MOLECULE
*****
 33 37 0 0 0
SMALL
GASTEIGER

@<TRIPOS>ATOM
      1 C         142.1802  144.2076  161.1406 C.ar    1  UNL1        0.0839
      2 C         140.9885  145.0917  161.3598 C.ar    1  UNL1        0.0192
      3 C         140.3094  145.7390  160.1894 C.ar    1  UNL1        0.0030
      4 C         140.8221  145.5021  158.7998 C.ar    1  UNL1        0.0174
      5 C         140.1430  146.1494  157.6293 C.ar    1  UNL1       -0.0027
      6 C         140.6556  145.9125  156.2397 C.ar    1  UNL1       -0.0207
      7 C         141.8474  145.0283  156.0205 C.ar    1  UNL1       -0.0027
      8 C         142.5264  144.3810  157.1910 C.ar    1  UNL1        0.0188
      9 C         142.0138  144.6179  158.5806 C.ar    1  UNL1        0.0812
     10 N         142.6928  143.9707  159.7510 N.ar    1  UNL1       -0.2453
     11 N         143.2365  142.3633  164.3885 N.ar    1  UNL1       -0.2145
     12 N         144.5719  142.7649  163.8358 N.ar    1  UNL1       -0.1624
     13 C         144.3387  143.5046  162.5519 C.ar    1  UNL1        0.1232
     14 C         142.8593  143.5602  162.3111 C.ar    1  UNL1        0.0522
     15 C         142.1780  142.8549  163.4462 C.ar    1  UNL1        0.0655
     16 C         140.6982  142.6730  163.6101 C.3     1  UNL1        0.0523
     17 C         142.5298  140.0842  168.2037 C.ar    1  UNL1        0.2439
     18 C         142.3766  139.3961  166.8797 C.ar    1  UNL1        0.0624
     19 C         142.6121  140.1558  165.6080 C.ar    1  UNL1        0.0454
     20 C         143.0009  141.6036  165.6603 C.ar    1  UNL1        0.1848
     21 N         143.1541  142.2918  166.9843 N.ar    1  UNL1       -0.1255
     22 N         142.9186  141.5321  168.2560 N.ar    1  UNL1       -0.1088
     23 O         142.2942  139.3245  169.4755 O.3     1  UNL1       -0.4593
     24 C         139.8581  140.1954  169.7137 C.3     1  UNL1        0.0512
     25 C         141.1098  139.6513  170.3359 C.3     1  UNL1        0.2073
     26 C         139.9766  146.5598  155.0693 C.3     1  UNL1        0.0437
     27 C         138.7957  147.4580  155.2899 C.3     1  UNL1        0.0768
     28 N         138.9681  148.9474  155.2483 N.3     1  UNL1       -0.2737
     29 C         139.5185  149.7395  154.0995 C.3     1  UNL1        0.0721
     30 C         139.5110  151.1880  154.4894 C.3     1  UNL1        0.0187
     31 C         138.9559  151.2910  155.8791 C.3     1  UNL1        0.0174
     32 C         138.6205  149.9063  156.3482 C.3     1  UNL1        0.0576
     33 C         138.0393  149.5441  157.6827 C.3     1  UNL1        0.0173
@<TRIPOS>BOND
     1    24    25    1
     2    25    23    1
     3    23    17    1
     4    17    18   ar
     5    18    19   ar
     6    19    20   ar
     7    20    11    1
     8    11    12   ar
     9    12    13   ar
    10    13    14   ar
    11    14     1    1
    12     1     2   ar
    13     2     3   ar
    14     3     4   ar
    15     4     5   ar
    16     5     6   ar
    17     6    26    1
    18    26    27    1
    19    27    28    1
    20    28    29    1
    21    29    30    1
    22    30    31    1
    23    31    32    1
    24    32    33    1
    25     6     7   ar
    26     7     8   ar
    27     8     9   ar
    28     9    10   ar
    29    14    15   ar
    30    15    16    1
    31    20    21   ar
    32    21    22   ar
    33    22    17   ar
    34    15    11   ar
    35    10     1   ar
    36     9     4   ar
    37    32    28    1
@<TRIPOS>MOLECULE
*****
 33 37 0 0 0
SMALL
GASTEIGER

@<TRIPOS>ATOM
      1 C         140.1372  138.9350  162.3244 C.ar    1  UNL1        0.0839
      2 C         139.4249  137.7572  162.9207 C.ar    1  UNL1        0.0192
      3 C         139.0686  137.7553  164.3778 C.ar    1  UNL1        0.0030
      4 C         139.4245  138.9311  165.2385 C.ar    1  UNL1        0.0174
      5 C         139.0681  138.9291  166.6956 C.ar    1  UNL1       -0.0027
      6 C         139.4240  140.1049  167.5563 C.ar    1  UNL1       -0.0207
      7 C         140.1363  141.2826  166.9599 C.ar    1  UNL1       -0.0027
      8 C         140.4926  141.2846  165.5029 C.ar    1  UNL1        0.0188
      9 C         140.1367  140.1088  164.6422 C.ar    1  UNL1        0.0812
     10 N         140.4931  140.1107  163.1852 N.ar    1  UNL1       -0.2453
     11 N         141.7279  139.1928  158.7933 N.ar    1  UNL1       -0.2145
     12 N         140.3562  138.6872  158.4571 N.ar    1  UNL1       -0.1624
     13 C         139.5934  138.5291  159.7389 C.ar    1  UNL1        0.1232
     14 C         140.4935  138.9369  160.8673 C.ar    1  UNL1        0.0522
     15 C         141.8127  139.3471  160.2829 C.ar    1  UNL1        0.0655
     16 C         143.0071  139.8273  161.0529 C.3     1  UNL1        0.0523
     17 C         145.0115  140.0891  155.8498 C.ar    1  UNL1        0.2439
     18 C         144.3892  141.2013  156.6409 C.ar    1  UNL1        0.0624
     19 C         143.2947  140.9026  157.6220 C.ar    1  UNL1        0.0454
     20 C         142.8224  139.4916  157.8121 C.ar    1  UNL1        0.1848
     21 N         143.4447  138.3794  157.0211 N.ar    1  UNL1       -0.1255
     22 N         144.5392  138.6781  156.0400 N.ar    1  UNL1       -0.1088
     23 O         146.1060  140.3879  154.8687 O.3     1  UNL1       -0.4593
     24 C         148.0889  141.8999  155.5980 C.3     1  UNL1        0.0512
     25 C         146.7815  141.7271  154.8834 C.3     1  UNL1        0.2073
     26 C         139.0677  140.1030  169.0133 C.3     1  UNL1        0.0437
     27 C         140.1489  140.0201  170.0498 C.3     1  UNL1        0.0768
     28 N         141.2926  140.9902  170.0197 N.3     1  UNL1       -0.2737
     29 C         142.7278  140.6528  169.7434 C.3     1  UNL1        0.0721
     30 C         143.5241  141.9220  169.8135 C.3     1  UNL1        0.0187
     31 C         142.5810  143.0438  170.1332 C.3     1  UNL1        0.0174
     32 C         141.2018  142.4679  170.2606 C.3     1  UNL1        0.0576
     33 C         139.9515  143.2350  170.5739 C.3     1  UNL1        0.0173
@<TRIPOS>BOND
     1    24    25    1
     2    25    23    1
     3    23    17    1
     4    17    18   ar
     5    18    19   ar
     6    19    20   ar
     7    20    11    1
     8    11    12   ar
     9    12    13   ar
    10    13    14   ar
    11    14     1    1
    12     1     2   ar
    13     2     3   ar
    14     3     4   ar
    15     4     5   ar
    16     5     6   ar
    17     6    26    1
    18    26    27    1
    19    27    28    1
    20    28    29    1
    21    29    30    1
    22    30    31    1
    23    31    32    1
    24    32    33    1
    25     6     7   ar
    26     7     8   ar
    27     8     9   ar
    28     9    10   ar
    29    14    15   ar
    30    15    16    1
    31    20    21   ar
    32    21    22   ar
    33    22    17   ar
    34    15    11   ar
    35    10     1   ar
    36     9     4   ar
    37    32    28    1
@<TRIPOS>MOLECULE
*****
 33 37 0 0 0
SMALL
GASTEIGER

@<TRIPOS>ATOM
      1 C         142.4122  138.1294  159.9998 C.ar    1  UNL1        0.0839
      2 C         143.6369  138.9448  160.2913 C.ar    1  UNL1        0.0192
      3 C         144.0259  139.2326  161.7111 C.ar    1  UNL1        0.0030
      4 C         143.1900  138.7050  162.8394 C.ar    1  UNL1        0.0174
      5 C         143.5790  138.9928  164.2592 C.ar    1  UNL1       -0.0027
      6 C         142.7432  138.4652  165.3875 C.ar    1  UNL1       -0.0207
      7 C         141.5184  137.6498  165.0959 C.ar    1  UNL1       -0.0027
      8 C         141.1294  137.3620  163.6761 C.ar    1  UNL1        0.0188
      9 C         141.9653  137.8896  162.5479 C.ar    1  UNL1        0.0812
     10 N         141.5763  137.6018  161.1281 N.ar    1  UNL1       -0.2453
     11 N         140.8002  137.8048  156.4838 N.ar    1  UNL1       -0.2145
     12 N         142.0488  136.9927  156.3063 N.ar    1  UNL1       -0.1624
     13 C         142.8046  137.0155  157.6018 C.ar    1  UNL1        0.1232
     14 C         142.0232  137.8416  158.5799 C.ar    1  UNL1        0.0522
     15 C         140.7844  138.3295  157.8890 C.ar    1  UNL1        0.0655
     16 C         139.7171  139.1907  158.4965 C.3     1  UNL1        0.0523
     17 C         137.6543  138.5383  153.3509 C.ar    1  UNL1        0.2439
     18 C         139.0440  139.0687  153.1569 C.ar    1  UNL1        0.0624
     19 C         140.0926  138.8242  154.2012 C.ar    1  UNL1        0.0454
     20 C         139.7516  138.0493  155.4395 C.ar    1  UNL1        0.1848
     21 N         138.3619  137.5190  155.6335 N.ar    1  UNL1       -0.1255
     22 N         137.3133  137.7635  154.5892 N.ar    1  UNL1       -0.1088
     23 O         136.6057  138.7829  152.3066 O.3     1  UNL1       -0.4593
     24 C         136.0230  141.0574  153.4188 C.3     1  UNL1        0.0512
     25 C         135.7553  140.0168  152.3722 C.3     1  UNL1        0.2073
     26 C         143.1321  138.7530  166.8073 C.3     1  UNL1        0.0437
     27 C         142.7174  140.0424  167.4520 C.3     1  UNL1        0.0768
     28 N         141.5502  140.0687  168.3936 N.3     1  UNL1       -0.2737
     29 C         141.6138  139.8922  169.8819 C.3     1  UNL1        0.0721
     30 C         140.2173  139.9905  170.4204 C.3     1  UNL1        0.0187
     31 C         139.2906  140.2278  169.2650 C.3     1  UNL1        0.0174
     32 C         140.1143  140.2761  168.0124 C.3     1  UNL1        0.0576
     33 C         139.5937  140.4936  166.6226 C.3     1  UNL1        0.0173
@<TRIPOS>BOND
     1    24    25    1
     2    25    23    1
     3    23    17    1
     4    17    18   ar
     5    18    19   ar
     6    19    20   ar
     7    20    11    1
     8    11    12   ar
     9    12    13   ar
    10    13    14   ar
    11    14     1    1
    12     1     2   ar
    13     2     3   ar
    14     3     4   ar
    15     4     5   ar
    16     5     6   ar
    17     6    26    1
    18    26    27    1
    19    27    28    1
    20    28    29    1
    21    29    30    1
    22    30    31    1
    23    31    32    1
    24    32    33    1
    25     6     7   ar
    26     7     8   ar
    27     8     9   ar
    28     9    10   ar
    29    14    15   ar
    30    15    16    1
    31    20    21   ar
    32    21    22   ar
    33    22    17   ar
    34    15    11   ar
    35    10     1   ar
    36     9     4   ar
    37    32    28    1
@<TRIPOS>MOLECULE
*****
 33 37 0 0 0
SMALL
GASTEIGER

@<TRIPOS>ATOM
      1 C         143.4266  143.0600  160.6163 C.ar    1  UNL1        0.0839
      2 C         144.1126  142.6335  159.3525 C.ar    1  UNL1        0.0192
      3 C         143.6598  143.1815  158.0317 C.ar    1  UNL1        0.0030
      4 C         142.5209  144.1560  157.9747 C.ar    1  UNL1        0.0174
      5 C         142.0681  144.7040  156.6538 C.ar    1  UNL1       -0.0027
      6 C         140.9292  145.6785  156.5968 C.ar    1  UNL1       -0.0207
      7 C         140.2432  146.1051  157.8608 C.ar    1  UNL1       -0.0027
      8 C         140.6960  145.5571  159.1816 C.ar    1  UNL1        0.0188
      9 C         141.8349  144.5825  159.2386 C.ar    1  UNL1        0.0812
     10 N         142.2877  144.0346  160.5594 N.ar    1  UNL1       -0.2453
     11 N         143.8790  141.7380  164.2376 N.ar    1  UNL1       -0.2145
     12 N         145.2734  141.5996  163.7022 N.ar    1  UNL1       -0.1624
     13 C         145.2736  142.0780  162.2805 C.ar    1  UNL1        0.1232
     14 C         143.8794  142.5120  161.9373 C.ar    1  UNL1        0.0522
     15 C         143.0175  142.3019  163.1468 C.ar    1  UNL1        0.0655
     16 C         141.5515  142.6028  163.2478 C.3     1  UNL1        0.0523
     17 C         142.5192  140.6521  168.3875 C.ar    1  UNL1        0.2439
     18 C         142.8625  142.0748  168.0590 C.ar    1  UNL1        0.0624
     19 C         143.3158  142.4368  166.6757 C.ar    1  UNL1        0.0454
     20 C         143.4257  141.3760  165.6209 C.ar    1  UNL1        0.1848
     21 N         143.0823  139.9533  165.9493 N.ar    1  UNL1       -0.1255
     22 N         142.6291  139.5913  167.3326 N.ar    1  UNL1       -0.1088
     23 O         142.0659  140.2901  169.7707 O.3     1  UNL1       -0.4593
     24 C         139.5462  140.4701  169.1635 C.3     1  UNL1        0.0512
     25 C         140.6397  139.8933  170.0129 C.3     1  UNL1        0.2073
     26 C         140.4764  146.2265  155.2760 C.3     1  UNL1        0.0437
     27 C         139.1474  146.9132  155.1648 C.3     1  UNL1        0.0768
     28 N         139.0741  148.4113  155.1746 N.3     1  UNL1       -0.2737
     29 C         138.4546  149.2567  156.2477 C.3     1  UNL1        0.0721
     30 C         138.6050  150.6950  155.8494 C.3     1  UNL1        0.0187
     31 C         139.3176  150.7385  154.5301 C.3     1  UNL1        0.0174
     32 C         139.6075  149.3271  154.1131 C.3     1  UNL1        0.0576
     33 C         140.3078  148.9055  152.8554 C.3     1  UNL1        0.0173
@<TRIPOS>BOND
     1    24    25    1
     2    25    23    1
     3    23    17    1
     4    17    18   ar
     5    18    19   ar
     6    19    20   ar
     7    20    11    1
     8    11    12   ar
     9    12    13   ar
    10    13    14   ar
    11    14     1    1
    12     1     2   ar
    13     2     3   ar
    14     3     4   ar
    15     4     5   ar
    16     5     6   ar
    17     6    26    1
    18    26    27    1
    19    27    28    1
    20    28    29    1
    21    29    30    1
    22    30    31    1
    23    31    32    1
    24    32    33    1
    25     6     7   ar
    26     7     8   ar
    27     8     9   ar
    28     9    10   ar
    29    14    15   ar
    30    15    16    1
    31    20    21   ar
    32    21    22   ar
    33    22    17   ar
    34    15    11   ar
    35    10     1   ar
    36     9     4   ar
    37    32    28    1
@<TRIPOS>MOLECULE
*****
 33 37 0 0 0
SMALL
GASTEIGER

@<TRIPOS>ATOM
      1 C         138.5209  142.1203  159.1535 C.ar    1  UNL1        0.0839
      2 C         139.0196  140.7064  159.1989 C.ar    1  UNL1        0.0192
      3 C         139.0826  139.9750  160.5069 C.ar    1  UNL1        0.0030
      4 C         138.6470  140.6576  161.7696 C.ar    1  UNL1        0.0174
      5 C         138.7101  139.9262  163.0777 C.ar    1  UNL1       -0.0027
      6 C         138.2745  140.6088  164.3404 C.ar    1  UNL1       -0.0207
      7 C         137.7758  142.0228  164.2950 C.ar    1  UNL1       -0.0027
      8 C         137.7127  142.7541  162.9869 C.ar    1  UNL1        0.0188
      9 C         138.1484  142.0715  161.7242 C.ar    1  UNL1        0.0812
     10 N         138.0853  142.8029  160.4161 N.ar    1  UNL1       -0.2453
     11 N         138.8566  144.4784  156.0887 N.ar    1  UNL1       -0.2145
     12 N         137.8651  143.4762  155.5762 N.ar    1  UNL1       -0.1624
     13 C         137.6187  142.4709  156.6618 C.ar    1  UNL1        0.1232
     14 C         138.4579  142.8517  157.8453 C.ar    1  UNL1        0.0522
     15 C         139.2229  144.0924  157.4911 C.ar    1  UNL1        0.0655
     16 C         140.1854  144.8194  158.3828 C.3     1  UNL1        0.0523
     17 C         140.4519  148.0206  153.8178 C.ar    1  UNL1        0.2439
     18 C         139.4270  148.2199  154.8947 C.ar    1  UNL1        0.0624
     19 C         138.8952  147.0391  155.6517 C.ar    1  UNL1        0.0454
     20 C         139.3884  145.6591  155.3317 C.ar    1  UNL1        0.1848
     21 N         140.4133  145.4598  154.2548 N.ar    1  UNL1       -0.1255
     22 N         140.9451  146.6406  153.4978 N.ar    1  UNL1       -0.1088
     23 O         140.9837  149.2014  153.0608 O.3     1  UNL1       -0.4593
     24 C         141.6999  151.4485  154.1504 C.3     1  UNL1        0.0512
     25 C         140.6480  150.5928  153.5092 C.3     1  UNL1        0.2073
     26 C         138.3375  139.8774  165.6485 C.3     1  UNL1        0.0437
     27 C         139.6270  139.8169  166.4125 C.3     1  UNL1        0.0768
     28 N         139.8475  140.7263  167.5848 N.3     1  UNL1       -0.2737
     29 C         139.5785  140.3927  169.0224 C.3     1  UNL1        0.0721
     30 C         139.9406  141.5892  169.8514 C.3     1  UNL1        0.0187
     31 C         140.4334  142.6622  168.9263 C.3     1  UNL1        0.0174
     32 C         140.3759  142.1289  167.5255 C.3     1  UNL1        0.0576
     33 C         140.7764  142.8684  166.2834 C.3     1  UNL1        0.0173
@<TRIPOS>BOND
     1    24    25    1
     2    25    23    1
     3    23    17    1
     4    17    18   ar
     5    18    19   ar
     6    19    20   ar
     7    20    11    1
     8    11    12   ar
     9    12    13   ar
    10    13    14   ar
    11    14     1    1
    12     1     2   ar
    13     2     3   ar
    14     3     4   ar
    15     4     5   ar
    16     5     6   ar
    17     6    26    1
    18    26    27    1
    19    27    28    1
    20    28    29    1
    21    29    30    1
    22    30    31    1
    23    31    32    1
    24    32    33    1
    25     6     7   ar
    26     7     8   ar
    27     8     9   ar
    28     9    10   ar
    29    14    15   ar
    30    15    16    1
    31    20    21   ar
    32    21    22   ar
    33    22    17   ar
    34    15    11   ar
    35    10     1   ar
    36     9     4   ar
    37    32    28    1
@<TRIPOS>MOLECULE
*****
 33 37 0 0 0
SMALL
GASTEIGER

@<TRIPOS>ATOM
      1 C         140.7767  140.8388  162.6586 C.ar    1  UNL1        0.0839
      2 C         139.8598  141.5244  163.6277 C.ar    1  UNL1        0.0192
      3 C         140.0461  141.3287  165.1031 C.ar    1  UNL1        0.0030
      4 C         141.1493  140.4475  165.6095 C.ar    1  UNL1        0.0174
      5 C         141.3355  140.2518  167.0850 C.ar    1  UNL1       -0.0027
      6 C         142.4387  139.3706  167.5914 C.ar    1  UNL1       -0.0207
      7 C         143.3557  138.6850  166.6222 C.ar    1  UNL1       -0.0027
      8 C         143.1694  138.8806  165.1467 C.ar    1  UNL1        0.0188
      9 C         142.0662  139.7619  164.6404 C.ar    1  UNL1        0.0812
     10 N         141.8799  139.9575  163.1649 N.ar    1  UNL1       -0.2453
     11 N         139.5718  141.1892  158.9855 N.ar    1  UNL1       -0.2145
     12 N         141.0358  141.4816  158.8395 N.ar    1  UNL1       -0.1624
     13 C         141.6654  141.3860  160.1976 C.ar    1  UNL1        0.1232
     14 C         140.5905  141.0344  161.1831 C.ar    1  UNL1        0.0522
     15 C         139.2966  140.9128  160.4339 C.ar    1  UNL1        0.0655
     16 C         137.9619  140.5742  161.0288 C.3     1  UNL1        0.0523
     17 C         136.5383  141.1483  155.6620 C.ar    1  UNL1        0.2439
     18 C         136.9180  142.4442  156.3150 C.ar    1  UNL1        0.0624
     19 C         137.9292  142.4579  157.4228 C.ar    1  UNL1        0.0454
     20 C         138.5607  141.1756  157.8777 C.ar    1  UNL1        0.1848
     21 N         138.1810  139.8796  157.2248 N.ar    1  UNL1       -0.1255
     22 N         137.1698  139.8660  156.1169 N.ar    1  UNL1       -0.1088
     23 O         135.5271  141.1347  154.5542 O.3     1  UNL1       -0.4593
     24 C         133.4258  140.2976  155.8324 C.3     1  UNL1        0.0512
     25 C         134.0659  141.2546  154.8710 C.3     1  UNL1        0.2073
     26 C         142.6250  139.1749  169.0668 C.3     1  UNL1        0.0437
     27 C         142.8882  140.3565  169.9527 C.3     1  UNL1        0.0768
     28 N         141.8860  141.4694  170.0361 N.3     1  UNL1       -0.2737
     29 C         142.1529  142.9189  169.7574 C.3     1  UNL1        0.0721
     30 C         140.8728  143.6736  169.9619 C.3     1  UNL1        0.0187
     31 C         139.8148  142.6904  170.3671 C.3     1  UNL1        0.0174
     32 C         140.4410  141.3282  170.4129 C.3     1  UNL1        0.0576
     33 C         139.7445  140.0493  170.7725 C.3     1  UNL1        0.0173
@<TRIPOS>BOND
     1    24    25    1
     2    25    23    1
     3    23    17    1
     4    17    18   ar
     5    18    19   ar
     6    19    20   ar
     7    20    11    1
     8    11    12   ar
     9    12    13   ar
    10    13    14   ar
    11    14     1    1
    12     1     2   ar
    13     2     3   ar
    14     3     4   ar
    15     4     5   ar
    16     5     6   ar
    17     6    26    1
    18    26    27    1
    19    27    28    1
    20    28    29    1
    21    29    30    1
    22    30    31    1
    23    31    32    1
    24    32    33    1
    25     6     7   ar
    26     7     8   ar
    27     8     9   ar
    28     9    10   ar
    29    14    15   ar
    30    15    16    1
    31    20    21   ar
    32    21    22   ar
    33    22    17   ar
    34    15    11   ar
    35    10     1   ar
    36     9     4   ar
    37    32    28    1
@<TRIPOS>MOLECULE
*****
 33 37 0 0 0
SMALL
GASTEIGER

@<TRIPOS>ATOM
      1 C         142.0868  138.3817  159.0130 C.ar    1  UNL1        0.0839
      2 C         140.6635  138.5006  158.5546 C.ar    1  UNL1        0.0192
      3 C         140.2207  137.8135  157.2970 C.ar    1  UNL1        0.0030
      4 C         141.2012  137.0075  156.4976 C.ar    1  UNL1        0.0174
      5 C         140.7583  136.3203  155.2399 C.ar    1  UNL1       -0.0027
      6 C         141.7388  135.5143  154.4406 C.ar    1  UNL1       -0.0207
      7 C         143.1622  135.3954  154.8990 C.ar    1  UNL1       -0.0027
      8 C         143.6050  136.0825  156.1566 C.ar    1  UNL1        0.0188
      9 C         142.6245  136.8885  156.9560 C.ar    1  UNL1        0.0812
     10 N         143.0673  137.5757  158.2136 N.ar    1  UNL1       -0.2453
     11 N         142.7424  139.6977  162.6052 N.ar    1  UNL1       -0.2145
     12 N         143.6797  140.5547  161.8070 N.ar    1  UNL1       -0.1624
     13 C         143.5482  140.1660  160.3642 C.ar    1  UNL1        0.1232
     14 C         142.5296  139.0688  160.2707 C.ar    1  UNL1        0.0522
     15 C         142.0317  138.7794  161.6557 C.ar    1  UNL1        0.0655
     16 C         141.0034  137.7520  162.0262 C.3     1  UNL1        0.0523
     17 C         142.1645  139.8542  167.0651 C.ar    1  UNL1        0.2439
     18 C         143.1385  138.8817  166.4688 C.ar    1  UNL1        0.0624
     19 C         143.3311  138.8296  164.9821 C.ar    1  UNL1        0.0454
     20 C         142.5498  139.7498  164.0918 C.ar    1  UNL1        0.1848
     21 N         141.5757  140.7223  164.6882 N.ar    1  UNL1       -0.1255
     22 N         141.3831  140.7744  166.1748 N.ar    1  UNL1       -0.1088
     23 O         141.9718  139.9063  168.5518 O.3     1  UNL1       -0.4593
     24 C         143.1137  142.1574  169.1672 C.3     1  UNL1        0.0512
     25 C         142.9263  140.6883  169.4048 C.3     1  UNL1        0.2073
     26 C         141.2960  134.8271  153.1829 C.3     1  UNL1        0.0437
     27 C         141.8337  133.4691  152.8411 C.3     1  UNL1        0.0768
     28 N         141.0991  132.2385  153.2835 N.3     1  UNL1       -0.2737
     29 C         140.1396  131.4381  152.4534 C.3     1  UNL1        0.0721
     30 C         139.6425  130.2971  153.2906 C.3     1  UNL1        0.0187
     31 C         140.2947  130.3922  154.6381 C.3     1  UNL1        0.0174
     32 C         141.1949  131.5920  154.6336 C.3     1  UNL1        0.0576
     33 C         142.0422  132.0628  155.7784 C.3     1  UNL1        0.0173
@<TRIPOS>BOND
     1    24    25    1
     2    25    23    1
     3    23    17    1
     4    17    18   ar
     5    18    19   ar
     6    19    20   ar
     7    20    11    1
     8    11    12   ar
     9    12    13   ar
    10    13    14   ar
    11    14     1    1
    12     1     2   ar
    13     2     3   ar
    14     3     4   ar
    15     4     5   ar
    16     5     6   ar
    17     6    26    1
    18    26    27    1
    19    27    28    1
    20    28    29    1
    21    29    30    1
    22    30    31    1
    23    31    32    1
    24    32    33    1
    25     6     7   ar
    26     7     8   ar
    27     8     9   ar
    28     9    10   ar
    29    14    15   ar
    30    15    16    1
    31    20    21   ar
    32    21    22   ar
    33    22    17   ar
    34    15    11   ar
    35    10     1   ar
    36     9     4   ar
    37    32    28    1
@<TRIPOS>MOLECULE
*****
 33 37 0 0 0
SMALL
GASTEIGER

@<TRIPOS>ATOM
      1 C         138.6456  142.0317  160.6915 C.ar    1  UNL1        0.0839
      2 C         138.0860  143.0478  161.6424 C.ar    1  UNL1        0.0192
      3 C         138.0157  142.7433  163.1094 C.ar    1  UNL1        0.0030
      4 C         138.5052  141.4226  163.6255 C.ar    1  UNL1        0.0174
      5 C         138.4349  141.1181  165.0927 C.ar    1  UNL1       -0.0027
      6 C         138.9244  139.7975  165.6088 C.ar    1  UNL1       -0.0207
      7 C         139.4841  138.7814  164.6578 C.ar    1  UNL1       -0.0027
      8 C         139.5543  139.0859  163.1907 C.ar    1  UNL1        0.0188
      9 C         139.0649  140.4066  162.6746 C.ar    1  UNL1        0.0812
     10 N         139.1351  140.7111  161.2076 N.ar    1  UNL1       -0.2453
     11 N         139.2063  143.4329  157.1154 N.ar    1  UNL1       -0.2145
     12 N         138.4418  142.1770  156.8181 N.ar    1  UNL1       -0.1624
     13 C         138.1388  141.4992  158.1215 C.ar    1  UNL1        0.1232
     14 C         138.7159  142.3363  159.2243 C.ar    1  UNL1        0.0522
     15 C         139.3756  143.5313  158.6025 C.ar    1  UNL1        0.0655
     16 C         140.0809  144.6317  159.3386 C.3     1  UNL1        0.0523
     17 C         140.7247  146.3866  154.0790 C.ar    1  UNL1        0.2439
     18 C         139.4655  146.6750  154.8413 C.ar    1  UNL1        0.0624
     19 C         138.9593  145.6904  155.8534 C.ar    1  UNL1        0.0454
     20 C         139.7124  144.4175  156.1033 C.ar    1  UNL1        0.1848
     21 N         140.9717  144.1291  155.3410 N.ar    1  UNL1       -0.1255
     22 N         141.4779  145.1137  154.3289 N.ar    1  UNL1       -0.1088
     23 O         141.2309  147.3712  153.0669 O.3     1  UNL1       -0.4593
     24 C         139.8824  149.4223  152.2157 C.3     1  UNL1        0.0512
     25 C         140.8609  148.8205  153.1802 C.3     1  UNL1        0.2073
     26 C         138.8541  139.4929  167.0758 C.3     1  UNL1        0.0437
     27 C         140.0210  139.8085  167.9641 C.3     1  UNL1        0.0768
     28 N         140.0576  141.1018  168.7230 N.3     1  UNL1       -0.2737
     29 C         139.5978  141.3083  170.1358 C.3     1  UNL1        0.0721
     30 C         139.8165  142.7498  170.4885 C.3     1  UNL1        0.0187
     31 C         140.4115  143.4341  169.2935 C.3     1  UNL1        0.0174
     32 C         140.5605  142.4156  168.2025 C.3     1  UNL1        0.0576
     33 C         141.1151  142.6668  166.8316 C.3     1  UNL1        0.0173
@<TRIPOS>BOND
     1    24    25    1
     2    25    23    1
     3    23    17    1
     4    17    18   ar
     5    18    19   ar
     6    19    20   ar
     7    20    11    1
     8    11    12   ar
     9    12    13   ar
    10    13    14   ar
    11    14     1    1
    12     1     2   ar
    13     2     3   ar
    14     3     4   ar
    15     4     5   ar
    16     5     6   ar
    17     6    26    1
    18    26    27    1
    19    27    28    1
    20    28    29    1
    21    29    30    1
    22    30    31    1
    23    31    32    1
    24    32    33    1
    25     6     7   ar
    26     7     8   ar
    27     8     9   ar
    28     9    10   ar
    29    14    15   ar
    30    15    16    1
    31    20    21   ar
    32    21    22   ar
    33    22    17   ar
    34    15    11   ar
    35    10     1   ar
    36     9     4   ar
    37    32    28    1
