@<TRIPOS>MOLECULE
*****
 35 38 0 0 0
SMALL
GASTEIGER

@<TRIPOS>ATOM
      1 C         143.4257  141.8092  160.5154 C.ar    1  UNL1        0.1757
      2 C         142.5030  140.7081  160.9470 C.ar    1  UNL1        0.0557
      3 C         142.2669  139.5315  160.0471 C.ar    1  UNL1        0.0680
      4 C         142.9535  139.4559  158.7157 C.ar    1  UNL1        0.0184
      5 C         143.8762  140.5569  158.2840 C.ar    1  UNL1        0.0341
      6 C         144.1123  141.7336  159.1839 C.ar    1  UNL1        0.1745
      7 F         145.0350  142.8346  158.7522 F       1  UNL1       -0.2009
      8 N         141.3442  138.4304  160.4788 N.pl3   1  UNL1       -0.2149
      9 H         141.2076  137.6469  159.8986 H       1  UNL1        0.1737
     10 S         140.6297  138.5232  161.7945 S.O2    1  UNL1        0.0736
     11 O         139.5481  139.3383  161.1497 O.2     1  UNL1       -0.1499
     12 O         141.7113  137.7081  162.4393 O.2     1  UNL1       -0.1499
     13 C         139.9153  138.6160  163.1101 C.ar    1  UNL1        0.1252
     14 C         139.5548  137.3664  163.8576 C.ar    1  UNL1        0.0210
     15 C         138.8404  137.4591  165.1732 C.ar    1  UNL1        0.0128
     16 C         138.4864  138.8015  165.7414 C.ar    1  UNL1        0.0578
     17 CL        137.7720  138.8942  167.0571 Cl      1  UNL1       -0.0822
     18 C         138.8468  140.0510  164.9940 C.ar    1  UNL1        0.0128
     19 C         139.5613  139.9583  163.6783 C.ar    1  UNL1        0.0210
     20 O         143.6618  142.9858  161.4152 O.3     1  UNL1       -0.4336
     21 C         139.7145  146.3508  161.7245 C.3     1  UNL1        0.0522
     22 C         140.5471  145.2651  162.3392 C.ar    1  UNL1        0.0626
     23 C         140.2386  144.7760  163.7233 C.ar    1  UNL1        0.0196
     24 C         141.0712  143.6902  164.3380 C.ar    1  UNL1        0.0641
     25 C         142.2122  143.0935  163.5687 C.ar    1  UNL1        0.1118
     26 C         142.5207  143.5826  162.1846 C.ar    1  UNL1        0.2339
     27 N         141.6881  144.6683  161.5699 N.ar    1  UNL1       -0.2156
     28 C         142.8526  142.0444  164.4285 C.2     1  UNL1        0.2596
     29 O         144.0313  141.1959  164.0534 O.2     1  UNL1       -0.2693
     30 N         142.1073  141.9927  165.7292 N.am    1  UNL1       -0.2244
     31 C         141.0063  143.0099  165.6733 C.2     1  UNL1        0.2552
     32 O         140.0146  143.2964  166.7616 O.2     1  UNL1       -0.2695
     33 C         142.4099  141.0834  166.8832 C.3     1  UNL1        0.0831
     34 C         142.2192  139.6024  166.7412 C.3     1  UNL1        0.0220
     35 C         142.9034  141.6552  168.1792 C.3     1  UNL1        0.0220
@<TRIPOS>BOND
     1    21    22    1
     2    22    23   ar
     3    23    24   ar
     4    24    25   ar
     5    25    26   ar
     6    26    20    1
     7    20     1    1
     8     1     2   ar
     9     2     3   ar
    10     3     8    1
    11     8    10    1
    12    10    11    2
    13    10    12    2
    14    10    13    1
    15    13    14   ar
    16    14    15   ar
    17    15    16   ar
    18    16    17    1
    19    16    18   ar
    20    18    19   ar
    21     3     4   ar
    22     4     5   ar
    23     5     6   ar
    24     6     7    1
    25    26    27   ar
    26    25    28    1
    27    28    29    2
    28    28    30   am
    29    30    33    1
    30    33    34    1
    31    33    35    1
    32    30    31   am
    33    31    32    2
    34    27    22   ar
    35    31    24    1
    36     6     1   ar
    37    19    13   ar
    38     8     9    1
@<TRIPOS>MOLECULE
*****
 35 38 0 0 0
SMALL
GASTEIGER

@<TRIPOS>ATOM
      1 C         138.1397  140.3582  162.3884 C.ar    1  UNL1        0.1757
      2 C         138.8713  139.9242  163.6239 C.ar    1  UNL1        0.0557
      3 C         139.0801  138.4642  163.8979 C.ar    1  UNL1        0.0680
      4 C         138.5574  137.4384  162.9365 C.ar    1  UNL1        0.0184
      5 C         137.8259  137.8724  161.7010 C.ar    1  UNL1        0.0341
      6 C         137.6170  139.3323  161.4269 C.ar    1  UNL1        0.1745
      7 F         136.8855  139.7663  160.1914 F       1  UNL1       -0.2009
      8 N         139.8117  138.0302  165.1334 N.pl3   1  UNL1       -0.2149
      9 H         139.9547  137.0722  165.3099 H       1  UNL1        0.1737
     10 S         140.3253  139.0557  166.1001 S.O2    1  UNL1        0.0736
     11 O         141.6817  138.9755  165.4647 O.2     1  UNL1       -0.1499
     12 O         138.9690  139.1360  166.7356 O.2     1  UNL1       -0.1499
     13 C         140.8389  140.0813  167.0668 C.ar    1  UNL1        0.1252
     14 C         142.0017  139.7567  167.9572 C.ar    1  UNL1        0.0210
     15 C         142.5152  140.7822  168.9239 C.ar    1  UNL1        0.0128
     16 C         141.8661  142.1323  169.0002 C.ar    1  UNL1        0.0578
     17 CL        142.3797  143.1578  169.9669 Cl      1  UNL1       -0.0822
     18 C         140.7034  142.4569  168.1099 C.ar    1  UNL1        0.0128
     19 C         140.1898  141.4314  167.1432 C.ar    1  UNL1        0.0210
     20 O         137.9308  141.8181  162.1144 O.3     1  UNL1       -0.4336
     21 C         138.4998  145.2733  165.9534 C.3     1  UNL1        0.0522
     22 C         139.0477  144.5693  164.7475 C.ar    1  UNL1        0.0626
     23 C         140.4281  144.8891  164.2551 C.ar    1  UNL1        0.0196
     24 C         140.9760  144.1851  163.0492 C.ar    1  UNL1        0.0641
     25 C         140.1436  143.1615  162.3356 C.ar    1  UNL1        0.1118
     26 C         138.7633  142.8418  162.8280 C.ar    1  UNL1        0.2339
     27 N         138.2154  143.5457  164.0339 N.ar    1  UNL1       -0.2156
     28 C         140.9452  142.6342  161.1827 C.2     1  UNL1        0.2596
     29 O         140.4976  141.5921  160.2010 O.2     1  UNL1       -0.2693
     30 N         142.2731  143.3320  161.1837 N.am    1  UNL1       -0.2244
     31 C         142.2921  144.2905  162.3372 C.2     1  UNL1        0.2552
     32 O         143.4278  145.1955  162.7129 O.2     1  UNL1       -0.2695
     33 C         143.3864  143.1101  160.2031 C.3     1  UNL1        0.0831
     34 C         143.1714  143.3972  158.7467 C.3     1  UNL1        0.0220
     35 C         144.7147  142.6012  160.6792 C.3     1  UNL1        0.0220
@<TRIPOS>BOND
     1    21    22    1
     2    22    23   ar
     3    23    24   ar
     4    24    25   ar
     5    25    26   ar
     6    26    20    1
     7    20     1    1
     8     1     2   ar
     9     2     3   ar
    10     3     8    1
    11     8    10    1
    12    10    11    2
    13    10    12    2
    14    10    13    1
    15    13    14   ar
    16    14    15   ar
    17    15    16   ar
    18    16    17    1
    19    16    18   ar
    20    18    19   ar
    21     3     4   ar
    22     4     5   ar
    23     5     6   ar
    24     6     7    1
    25    26    27   ar
    26    25    28    1
    27    28    29    2
    28    28    30   am
    29    30    33    1
    30    33    34    1
    31    33    35    1
    32    30    31   am
    33    31    32    2
    34    27    22   ar
    35    31    24    1
    36     6     1   ar
    37    19    13   ar
    38     8     9    1
@<TRIPOS>MOLECULE
*****
 35 38 0 0 0
SMALL
GASTEIGER

@<TRIPOS>ATOM
      1 C         142.7166  142.2323  163.6312 C.ar    1  UNL1        0.1757
      2 C         141.7447  143.0691  162.8532 C.ar    1  UNL1        0.0557
      3 C         141.9212  144.5573  162.7872 C.ar    1  UNL1        0.0680
      4 C         143.0696  145.2086  163.4992 C.ar    1  UNL1        0.0184
      5 C         144.0415  144.3719  164.2772 C.ar    1  UNL1        0.0341
      6 C         143.8651  142.8838  164.3432 C.ar    1  UNL1        0.1745
      7 F         144.8370  142.0470  165.1211 F       1  UNL1       -0.2009
      8 N         140.9493  145.3940  162.0093 N.pl3   1  UNL1       -0.2149
      9 H         140.6054  146.2332  162.3924 H       1  UNL1        0.1737
     10 S         140.5015  144.9522  160.6475 S.O2    1  UNL1        0.0736
     11 O         141.8844  145.1871  160.1164 O.2     1  UNL1       -0.1499
     12 O         139.1185  144.7173  161.1787 O.2     1  UNL1       -0.1499
     13 C         140.0536  144.5104  159.2859 C.ar    1  UNL1        0.1252
     14 C         140.3187  145.3777  158.0910 C.ar    1  UNL1        0.0210
     15 C         139.8708  144.9359  156.7294 C.ar    1  UNL1        0.0128
     16 C         139.1577  143.6268  156.5625 C.ar    1  UNL1        0.0578
     17 CL        138.7098  143.1850  155.2008 Cl      1  UNL1       -0.0822
     18 C         138.8926  142.7595  157.7572 C.ar    1  UNL1        0.0128
     19 C         139.3405  143.2013  159.1190 C.ar    1  UNL1        0.0210
     20 O         142.5402  140.7443  163.6972 O.3     1  UNL1       -0.4336
     21 C         138.1085  138.7114  161.9005 C.3     1  UNL1        0.0522
     22 C         138.9661  139.1441  163.0526 C.ar    1  UNL1        0.0626
     23 C         138.4653  138.9933  164.4585 C.ar    1  UNL1        0.0196
     24 C         139.3229  139.4260  165.6106 C.ar    1  UNL1        0.0641
     25 C         140.6811  140.0097  165.3569 C.ar    1  UNL1        0.1118
     26 C         141.1818  140.1606  163.9510 C.ar    1  UNL1        0.2339
     27 N         140.3243  139.7278  162.7989 N.ar    1  UNL1       -0.2156
     28 C         141.2967  140.3448  166.6830 C.2     1  UNL1        0.2596
     29 O         142.6522  140.9502  166.8980 O.2     1  UNL1       -0.2693
     30 N         140.3189  139.9683  167.7564 N.am    1  UNL1       -0.2244
     31 C         139.0990  139.4004  167.0936 C.2     1  UNL1        0.2552
     32 O         137.8708  138.8956  167.7913 O.2     1  UNL1       -0.2695
     33 C         140.5249  140.1310  169.2333 C.3     1  UNL1        0.0831
     34 C         139.5892  140.9903  170.0309 C.3     1  UNL1        0.0220
     35 C         141.6666  139.4345  169.9125 C.3     1  UNL1        0.0220
@<TRIPOS>BOND
     1    21    22    1
     2    22    23   ar
     3    23    24   ar
     4    24    25   ar
     5    25    26   ar
     6    26    20    1
     7    20     1    1
     8     1     2   ar
     9     2     3   ar
    10     3     8    1
    11     8    10    1
    12    10    11    2
    13    10    12    2
    14    10    13    1
    15    13    14   ar
    16    14    15   ar
    17    15    16   ar
    18    16    17    1
    19    16    18   ar
    20    18    19   ar
    21     3     4   ar
    22     4     5   ar
    23     5     6   ar
    24     6     7    1
    25    26    27   ar
    26    25    28    1
    27    28    29    2
    28    28    30   am
    29    30    33    1
    30    33    34    1
    31    33    35    1
    32    30    31   am
    33    31    32    2
    34    27    22   ar
    35    31    24    1
    36     6     1   ar
    37    19    13   ar
    38     8     9    1
@<TRIPOS>MOLECULE
*****
 35 38 0 0 0
SMALL
GASTEIGER

@<TRIPOS>ATOM
      1 C         142.0358  143.2083  159.5037 C.ar    1  UNL1        0.1757
      2 C         141.3537  141.9407  159.9255 C.ar    1  UNL1        0.0557
      3 C         140.5822  141.1348  158.9229 C.ar    1  UNL1        0.0680
      4 C         140.4928  141.5964  157.4985 C.ar    1  UNL1        0.0184
      5 C         141.1749  142.8640  157.0767 C.ar    1  UNL1        0.0341
      6 C         141.9464  143.6699  158.0792 C.ar    1  UNL1        0.1745
      7 F         142.6285  144.9375  157.6574 F       1  UNL1       -0.2009
      8 N         139.9000  139.8672  159.3447 N.pl3   1  UNL1       -0.2149
      9 H         139.6842  139.1781  158.6755 H       1  UNL1        0.1737
     10 S         139.5468  139.6494  160.7862 S.O2    1  UNL1        0.0736
     11 O         140.7326  138.7437  160.9400 O.2     1  UNL1       -0.1499
     12 O         138.3611  140.5551  160.6324 O.2     1  UNL1       -0.1499
     13 C         139.1936  139.4317  162.2277 C.ar    1  UNL1        0.1252
     14 C         139.1946  138.0447  162.7989 C.ar    1  UNL1        0.0210
     15 C         138.8414  137.8270  164.2404 C.ar    1  UNL1        0.0128
     16 C         138.4871  138.9963  165.1106 C.ar    1  UNL1        0.0578
     17 CL        138.1339  138.7786  166.5520 Cl      1  UNL1       -0.0822
     18 C         138.4861  140.3832  164.5394 C.ar    1  UNL1        0.0128
     19 C         138.8393  140.6010  163.0979 C.ar    1  UNL1        0.0210
     20 O         142.8073  144.0143  160.5062 O.3     1  UNL1       -0.4336
     21 C         145.9525  141.6196  163.8787 C.3     1  UNL1        0.0522
     22 C         144.6350  142.2636  163.5632 C.ar    1  UNL1        0.0626
     23 C         143.5727  142.3543  164.6182 C.ar    1  UNL1        0.0196
     24 C         142.2552  142.9982  164.3026 C.ar    1  UNL1        0.0641
     25 C         142.0001  143.5516  162.9320 C.ar    1  UNL1        0.1118
     26 C         143.0624  143.4609  161.8770 C.ar    1  UNL1        0.2339
     27 N         144.3799  142.8170  162.1925 N.ar    1  UNL1       -0.2156
     28 C         140.6145  144.1259  162.9145 C.2     1  UNL1        0.2596
     29 O         139.9473  144.7832  161.7429 O.2     1  UNL1       -0.2693
     30 N         140.0133  143.9275  164.2744 N.am    1  UNL1       -0.2244
     31 C         141.0273  143.2306  165.1323 C.2     1  UNL1        0.2552
     32 O         140.8454  142.8354  166.5678 O.2     1  UNL1       -0.2695
     33 C         138.6393  144.3517  164.7013 C.3     1  UNL1        0.0831
     34 C         138.4563  145.1407  165.9639 C.3     1  UNL1        0.0220
     35 C         137.4482  143.9868  163.8657 C.3     1  UNL1        0.0220
@<TRIPOS>BOND
     1    21    22    1
     2    22    23   ar
     3    23    24   ar
     4    24    25   ar
     5    25    26   ar
     6    26    20    1
     7    20     1    1
     8     1     2   ar
     9     2     3   ar
    10     3     8    1
    11     8    10    1
    12    10    11    2
    13    10    12    2
    14    10    13    1
    15    13    14   ar
    16    14    15   ar
    17    15    16   ar
    18    16    17    1
    19    16    18   ar
    20    18    19   ar
    21     3     4   ar
    22     4     5   ar
    23     5     6   ar
    24     6     7    1
    25    26    27   ar
    26    25    28    1
    27    28    29    2
    28    28    30   am
    29    30    33    1
    30    33    34    1
    31    33    35    1
    32    30    31   am
    33    31    32    2
    34    27    22   ar
    35    31    24    1
    36     6     1   ar
    37    19    13   ar
    38     8     9    1
@<TRIPOS>MOLECULE
*****
 35 38 0 0 0
SMALL
GASTEIGER

@<TRIPOS>ATOM
      1 C         140.1221  144.1722  160.1086 C.ar    1  UNL1        0.1757
      2 C         139.5190  142.8320  160.4088 C.ar    1  UNL1        0.0557
      3 C         138.9875  141.9819  159.2930 C.ar    1  UNL1        0.0680
      4 C         139.0590  142.4721  157.8772 C.ar    1  UNL1        0.0184
      5 C         139.6620  143.8123  157.5771 C.ar    1  UNL1        0.0341
      6 C         140.1936  144.6624  158.6927 C.ar    1  UNL1        0.1745
      7 F         140.7966  146.0026  158.3926 F       1  UNL1       -0.2009
      8 N         138.3844  140.6416  159.5931 N.pl3   1  UNL1       -0.2149
      9 H         137.9757  140.1128  158.8703 H       1  UNL1        0.1737
     10 S         138.4042  140.1072  160.9946 S.O2    1  UNL1        0.0736
     11 O         137.1823  140.9142  161.3196 O.2     1  UNL1       -0.1499
     12 O         139.6260  139.3002  160.6696 O.2     1  UNL1       -0.1499
     13 C         138.4239  139.5727  162.3960 C.ar    1  UNL1        0.1252
     14 C         138.1110  140.4797  163.5491 C.ar    1  UNL1        0.0210
     15 C         138.1308  139.9453  164.9505 C.ar    1  UNL1        0.0128
     16 C         138.4635  138.5039  165.1988 C.ar    1  UNL1        0.0578
     17 CL        138.4833  137.9694  166.6002 Cl      1  UNL1       -0.0822
     18 C         138.7764  137.5969  164.0458 C.ar    1  UNL1        0.0128
     19 C         138.7566  138.1313  162.6443 C.ar    1  UNL1        0.0210
     20 O         140.6536  145.0223  161.2243 O.3     1  UNL1       -0.4336
     21 C         138.2299  145.1144  165.8197 C.3     1  UNL1        0.0522
     22 C         139.3310  144.5975  164.9419 C.ar    1  UNL1        0.0626
     23 C         140.3212  143.6098  165.4839 C.ar    1  UNL1        0.0196
     24 C         141.4222  143.0929  164.6062 C.ar    1  UNL1        0.0641
     25 C         141.5331  143.5637  163.1863 C.ar    1  UNL1        0.1118
     26 C         140.5428  144.5514  162.6443 C.ar    1  UNL1        0.2339
     27 N         139.4418  145.0683  163.5220 N.ar    1  UNL1       -0.2156
     28 C         142.7156  142.8830  162.5632 C.2     1  UNL1        0.2596
     29 O         143.1941  143.0624  161.1530 O.2     1  UNL1       -0.2693
     30 N         143.3357  141.9915  163.5980 N.am    1  UNL1       -0.2244
     31 C         142.5363  142.1212  164.8606 C.2     1  UNL1        0.2552
     32 O         142.8040  141.4050  166.1511 O.2     1  UNL1       -0.2695
     33 C         144.5431  141.1228  163.4042 C.3     1  UNL1        0.0831
     34 C         145.9141  141.6776  163.6539 C.3     1  UNL1        0.0220
     35 C         144.3794  139.6993  162.9606 C.3     1  UNL1        0.0220
@<TRIPOS>BOND
     1    21    22    1
     2    22    23   ar
     3    23    24   ar
     4    24    25   ar
     5    25    26   ar
     6    26    20    1
     7    20     1    1
     8     1     2   ar
     9     2     3   ar
    10     3     8    1
    11     8    10    1
    12    10    11    2
    13    10    12    2
    14    10    13    1
    15    13    14   ar
    16    14    15   ar
    17    15    16   ar
    18    16    17    1
    19    16    18   ar
    20    18    19   ar
    21     3     4   ar
    22     4     5   ar
    23     5     6   ar
    24     6     7    1
    25    26    27   ar
    26    25    28    1
    27    28    29    2
    28    28    30   am
    29    30    33    1
    30    33    34    1
    31    33    35    1
    32    30    31   am
    33    31    32    2
    34    27    22   ar
    35    31    24    1
    36     6     1   ar
    37    19    13   ar
    38     8     9    1
@<TRIPOS>MOLECULE
*****
 35 38 0 0 0
SMALL
GASTEIGER

@<TRIPOS>ATOM
      1 C         143.0340  142.2998  164.0888 C.ar    1  UNL1        0.1757
      2 C         143.0655  141.0173  163.3115 C.ar    1  UNL1        0.0557
      3 C         144.3800  140.4024  162.9320 C.ar    1  UNL1        0.0680
      4 C         145.6630  141.0700  163.3297 C.ar    1  UNL1        0.0184
      5 C         145.6315  142.3525  164.1070 C.ar    1  UNL1        0.0341
      6 C         144.3171  142.9674  164.4865 C.ar    1  UNL1        0.1745
      7 F         144.2856  144.2500  165.2637 F       1  UNL1       -0.2009
      8 N         144.4115  139.1198  162.1547 N.pl3   1  UNL1       -0.2149
      9 H         145.0870  138.4345  162.3629 H       1  UNL1        0.1737
     10 S         143.4138  138.8815  161.0602 S.O2    1  UNL1        0.0736
     11 O         144.0511  139.9659  160.2431 O.2     1  UNL1       -0.1499
     12 O         142.7765  137.7970  161.8774 O.2     1  UNL1       -0.1499
     13 C         142.4162  138.6431  159.9658 C.ar    1  UNL1        0.1252
     14 C         142.8477  137.9881  158.6872 C.ar    1  UNL1        0.0210
     15 C         141.8500  137.7497  157.5928 C.ar    1  UNL1        0.0128
     16 C         140.4208  138.1663  157.7769 C.ar    1  UNL1        0.0578
     17 CL        139.4232  137.9279  156.6825 Cl      1  UNL1       -0.0822
     18 C         139.9893  138.8213  159.0554 C.ar    1  UNL1        0.0128
     19 C         140.9870  139.0597  160.1499 C.ar    1  UNL1        0.0210
     20 O         141.7196  142.9147  164.4683 O.3     1  UNL1       -0.4336
     21 C         137.2758  140.9561  162.6199 C.3     1  UNL1        0.0522
     22 C         138.2872  141.0676  163.7220 C.ar    1  UNL1        0.0626
     23 C         138.0881  140.3113  165.0019 C.ar    1  UNL1        0.0196
     24 C         139.0996  140.4228  166.1040 C.ar    1  UNL1        0.0641
     25 C         140.3100  141.2906  165.9262 C.ar    1  UNL1        0.1118
     26 C         140.5091  142.0469  164.6462 C.ar    1  UNL1        0.2339
     27 N         139.4977  141.9354  163.5441 N.ar    1  UNL1       -0.2156
     28 C         141.1301  141.2047  167.1792 C.2     1  UNL1        0.2596
     29 O         142.4262  141.9150  167.4350 O.2     1  UNL1       -0.2693
     30 N         140.4265  140.2837  168.1315 N.am    1  UNL1       -0.2244
     31 C         139.1715  139.8005  167.4670 C.2     1  UNL1        0.2552
     32 O         138.1652  138.8601  168.0612 O.2     1  UNL1       -0.2695
     33 C         140.8955  139.9115  169.5068 C.3     1  UNL1        0.0831
     34 C         142.2274  139.2465  169.6906 C.3     1  UNL1        0.0220
     35 C         140.0326  140.2042  170.6983 C.3     1  UNL1        0.0220
@<TRIPOS>BOND
     1    21    22    1
     2    22    23   ar
     3    23    24   ar
     4    24    25   ar
     5    25    26   ar
     6    26    20    1
     7    20     1    1
     8     1     2   ar
     9     2     3   ar
    10     3     8    1
    11     8    10    1
    12    10    11    2
    13    10    12    2
    14    10    13    1
    15    13    14   ar
    16    14    15   ar
    17    15    16   ar
    18    16    17    1
    19    16    18   ar
    20    18    19   ar
    21     3     4   ar
    22     4     5   ar
    23     5     6   ar
    24     6     7    1
    25    26    27   ar
    26    25    28    1
    27    28    29    2
    28    28    30   am
    29    30    33    1
    30    33    34    1
    31    33    35    1
    32    30    31   am
    33    31    32    2
    34    27    22   ar
    35    31    24    1
    36     6     1   ar
    37    19    13   ar
    38     8     9    1
@<TRIPOS>MOLECULE
*****
 35 38 0 0 0
SMALL
GASTEIGER

@<TRIPOS>ATOM
      1 C         143.4210  140.8808  159.7815 C.ar    1  UNL1        0.1757
      2 C         143.2107  139.9202  160.9142 C.ar    1  UNL1        0.0557
      3 C         142.9007  138.4805  160.6289 C.ar    1  UNL1        0.0680
      4 C         142.8010  138.0015  159.2110 C.ar    1  UNL1        0.0184
      5 C         143.0113  138.9621  158.0782 C.ar    1  UNL1        0.0341
      6 C         143.3213  140.4017  158.3635 C.ar    1  UNL1        0.1745
      7 F         143.5316  141.3623  157.2308 F       1  UNL1       -0.2009
      8 N         142.6904  137.5199  161.7616 N.pl3   1  UNL1       -0.2149
      9 H         143.2081  136.6834  161.8002 H       1  UNL1        0.1737
     10 S         141.6913  137.8339  162.8356 S.O2    1  UNL1        0.0736
     11 O         142.8101  138.1314  163.7894 O.2     1  UNL1       -0.1499
     12 O         140.5726  137.5363  161.8817 O.2     1  UNL1       -0.1499
     13 C         140.6923  138.1478  163.9094 C.ar    1  UNL1        0.1252
     14 C         139.6004  137.1695  164.2273 C.ar    1  UNL1        0.0210
     15 C         138.6014  137.4834  165.3011 C.ar    1  UNL1        0.0128
     16 C         138.6940  138.7756  166.0572 C.ar    1  UNL1        0.0578
     17 CL        137.6949  139.0895  167.1311 Cl      1  UNL1       -0.0822
     18 C         139.7858  139.7539  165.7394 C.ar    1  UNL1        0.0128
     19 C         140.7849  139.4400  164.6655 C.ar    1  UNL1        0.0210
     20 O         143.7310  142.3204  160.0667 O.3     1  UNL1       -0.4336
     21 C         141.6776  145.9984  157.0243 C.3     1  UNL1        0.0522
     22 C         141.6646  145.2129  158.3022 C.ar    1  UNL1        0.0626
     23 C         140.6120  145.4810  159.3366 C.ar    1  UNL1        0.0196
     24 C         140.5991  144.6955  160.6144 C.ar    1  UNL1        0.0641
     25 C         141.6387  143.6420  160.8578 C.ar    1  UNL1        0.1118
     26 C         142.6913  143.3740  159.8233 C.ar    1  UNL1        0.2339
     27 N         142.7042  144.1594  158.5455 N.ar    1  UNL1       -0.2156
     28 C         141.3748  143.0323  162.2027 C.2     1  UNL1        0.2596
     29 O         142.1735  141.9380  162.8466 O.2     1  UNL1       -0.2693
     30 N         140.1721  143.7090  162.7905 N.am    1  UNL1       -0.2244
     31 C         139.6926  144.7369  161.8089 C.2     1  UNL1        0.2552
     32 O         138.5138  145.6466  161.9900 O.2     1  UNL1       -0.2695
     33 C         139.5569  143.4103  164.1256 C.3     1  UNL1        0.0831
     34 C         140.3881  143.4984  165.3710 C.3     1  UNL1        0.0220
     35 C         138.1104  143.0233  164.2151 C.3     1  UNL1        0.0220
@<TRIPOS>BOND
     1    21    22    1
     2    22    23   ar
     3    23    24   ar
     4    24    25   ar
     5    25    26   ar
     6    26    20    1
     7    20     1    1
     8     1     2   ar
     9     2     3   ar
    10     3     8    1
    11     8    10    1
    12    10    11    2
    13    10    12    2
    14    10    13    1
    15    13    14   ar
    16    14    15   ar
    17    15    16   ar
    18    16    17    1
    19    16    18   ar
    20    18    19   ar
    21     3     4   ar
    22     4     5   ar
    23     5     6   ar
    24     6     7    1
    25    26    27   ar
    26    25    28    1
    27    28    29    2
    28    28    30   am
    29    30    33    1
    30    33    34    1
    31    33    35    1
    32    30    31   am
    33    31    32    2
    34    27    22   ar
    35    31    24    1
    36     6     1   ar
    37    19    13   ar
    38     8     9    1
@<TRIPOS>MOLECULE
*****
 35 38 0 0 0
SMALL
GASTEIGER

@<TRIPOS>ATOM
      1 C         142.7823  142.6042  164.2278 C.ar    1  UNL1        0.1757
      2 C         141.5948  143.0789  163.4439 C.ar    1  UNL1        0.0557
      3 C         141.4691  144.5278  163.0765 C.ar    1  UNL1        0.0680
      4 C         142.5309  145.5020  163.4931 C.ar    1  UNL1        0.0184
      5 C         143.7184  145.0273  164.2770 C.ar    1  UNL1        0.0341
      6 C         143.8441  143.5785  164.6444 C.ar    1  UNL1        0.1745
      7 F         145.0316  143.1038  165.4283 F       1  UNL1       -0.2009
      8 N         140.2816  145.0025  162.2926 N.pl3   1  UNL1       -0.2149
      9 H         139.7299  145.7427  162.6347 H       1  UNL1        0.1737
     10 S         139.9348  144.3494  160.9875 S.O2    1  UNL1        0.0736
     11 O         138.6484  143.8528  161.5779 O.2     1  UNL1       -0.1499
     12 O         141.2211  144.8461  160.3971 O.2     1  UNL1       -0.1499
     13 C         139.5880  143.6964  159.6824 C.ar    1  UNL1        0.1252
     14 C         139.9952  144.3400  158.3901 C.ar    1  UNL1        0.0210
     15 C         139.6484  143.6870  157.0851 C.ar    1  UNL1        0.0128
     16 C         138.8944  142.3904  157.0722 C.ar    1  UNL1        0.0578
     17 CL        138.5476  141.7374  155.7671 Cl      1  UNL1       -0.0822
     18 C         138.4871  141.7468  158.3644 C.ar    1  UNL1        0.0128
     19 C         138.8339  142.3998  159.6696 C.ar    1  UNL1        0.0210
     20 O         142.9080  141.1554  164.5952 O.3     1  UNL1       -0.4336
     21 C         139.1670  137.7527  163.4009 C.3     1  UNL1        0.0522
     22 C         139.8196  138.6715  164.3908 C.ar    1  UNL1        0.0626
     23 C         139.2543  138.8077  165.7735 C.ar    1  UNL1        0.0196
     24 C         139.9069  139.7265  166.7634 C.ar    1  UNL1        0.0641
     25 C         141.1248  140.5090  166.3706 C.ar    1  UNL1        0.1118
     26 C         141.6901  140.3728  164.9880 C.ar    1  UNL1        0.2339
     27 N         141.0375  139.4540  163.9980 N.ar    1  UNL1       -0.2156
     28 C         141.5490  141.3301  167.5521 C.2     1  UNL1        0.2596
     29 O         142.7229  142.2626  167.6018 O.2     1  UNL1       -0.2693
     30 N         140.5933  141.0550  168.6750 N.am    1  UNL1       -0.2244
     31 C         139.5784  140.0639  168.1876 C.2     1  UNL1        0.2552
     32 O         138.4356  139.5079  168.9844 O.2     1  UNL1       -0.2695
     33 C         140.6437  141.6642  170.0449 C.3     1  UNL1        0.0831
     34 C         140.0284  143.0099  170.2904 C.3     1  UNL1        0.0220
     35 C         141.3095  140.9275  171.1692 C.3     1  UNL1        0.0220
@<TRIPOS>BOND
     1    21    22    1
     2    22    23   ar
     3    23    24   ar
     4    24    25   ar
     5    25    26   ar
     6    26    20    1
     7    20     1    1
     8     1     2   ar
     9     2     3   ar
    10     3     8    1
    11     8    10    1
    12    10    11    2
    13    10    12    2
    14    10    13    1
    15    13    14   ar
    16    14    15   ar
    17    15    16   ar
    18    16    17    1
    19    16    18   ar
    20    18    19   ar
    21     3     4   ar
    22     4     5   ar
    23     5     6   ar
    24     6     7    1
    25    26    27   ar
    26    25    28    1
    27    28    29    2
    28    28    30   am
    29    30    33    1
    30    33    34    1
    31    33    35    1
    32    30    31   am
    33    31    32    2
    34    27    22   ar
    35    31    24    1
    36     6     1   ar
    37    19    13   ar
    38     8     9    1
@<TRIPOS>MOLECULE
*****
 35 38 0 0 0
SMALL
GASTEIGER

@<TRIPOS>ATOM
      1 C         138.3151  140.6576  162.0456 C.ar    1  UNL1        0.1757
      2 C         139.1637  140.3843  163.2519 C.ar    1  UNL1        0.0557
      3 C         139.4128  138.9711  163.6890 C.ar    1  UNL1        0.0680
      4 C         138.8134  137.8314  162.9198 C.ar    1  UNL1        0.0184
      5 C         137.9647  138.1047  161.7136 C.ar    1  UNL1        0.0341
      6 C         137.7156  139.5178  161.2764 C.ar    1  UNL1        0.1745
      7 F         136.8670  139.7911  160.0701 F       1  UNL1       -0.2009
      8 N         140.2614  138.6978  164.8953 N.pl3   1  UNL1       -0.2149
      9 H         140.8801  137.9319  164.8986 H       1  UNL1        0.1737
     10 S         140.1674  139.5913  166.0965 S.O2    1  UNL1        0.0736
     11 O         138.8316  138.9979  166.4334 O.2     1  UNL1       -0.1499
     12 O         141.5032  140.1846  165.7597 O.2     1  UNL1       -0.1499
     13 C         140.0734  140.4847  167.2977 C.ar    1  UNL1        0.1252
     14 C         139.4387  139.9804  168.5598 C.ar    1  UNL1        0.0210
     15 C         139.3447  140.8738  169.7610 C.ar    1  UNL1        0.0128
     16 C         139.8854  142.2717  169.7001 C.ar    1  UNL1        0.0578
     17 CL        139.7914  143.1651  170.9012 Cl      1  UNL1       -0.0822
     18 C         140.5201  142.7760  168.4381 C.ar    1  UNL1        0.0128
     19 C         140.6141  141.8826  167.2368 C.ar    1  UNL1        0.0210
     20 O         138.0659  142.0707  161.6084 O.3     1  UNL1       -0.4336
     21 C         141.6358  144.9820  164.0125 C.3     1  UNL1        0.0522
     22 C         140.9873  144.5034  162.7475 C.ar    1  UNL1        0.0626
     23 C         141.4752  145.0017  161.4195 C.ar    1  UNL1        0.0196
     24 C         140.8266  144.5231  160.1545 C.ar    1  UNL1        0.0641
     25 C         139.6902  143.5461  160.2174 C.ar    1  UNL1        0.1118
     26 C         139.2024  143.0477  161.5454 C.ar    1  UNL1        0.2339
     27 N         139.8509  143.5264  162.8105 N.ar    1  UNL1       -0.2156
     28 C         139.2509  143.2550  158.8131 C.2     1  UNL1        0.2596
     29 O         138.1414  142.3293  158.4104 O.2     1  UNL1       -0.2693
     30 N         140.1158  144.0521  157.8822 N.am    1  UNL1       -0.2244
     31 C         141.0897  144.8358  158.7112 C.2     1  UNL1        0.2552
     32 O         142.1418  145.7686  158.1887 O.2     1  UNL1       -0.2695
     33 C         140.0230  144.0635  156.3850 C.3     1  UNL1        0.0831
     34 C         139.5031  145.2781  155.6750 C.3     1  UNL1        0.0220
     35 C         140.4501  142.8601  155.5980 C.3     1  UNL1        0.0220
@<TRIPOS>BOND
     1    21    22    1
     2    22    23   ar
     3    23    24   ar
     4    24    25   ar
     5    25    26   ar
     6    26    20    1
     7    20     1    1
     8     1     2   ar
     9     2     3   ar
    10     3     8    1
    11     8    10    1
    12    10    11    2
    13    10    12    2
    14    10    13    1
    15    13    14   ar
    16    14    15   ar
    17    15    16   ar
    18    16    17    1
    19    16    18   ar
    20    18    19   ar
    21     3     4   ar
    22     4     5   ar
    23     5     6   ar
    24     6     7    1
    25    26    27   ar
    26    25    28    1
    27    28    29    2
    28    28    30   am
    29    30    33    1
    30    33    34    1
    31    33    35    1
    32    30    31   am
    33    31    32    2
    34    27    22   ar
    35    31    24    1
    36     6     1   ar
    37    19    13   ar
    38     8     9    1
