@<TRIPOS>MOLECULE
*****
 41 45 0 0 0
SMALL
GASTEIGER

@<TRIPOS>ATOM
      1 C         140.3519  138.1189  161.6495 C.3     1  UNL1        0.0118
      2 C         139.5686  138.3837  160.3979 C.3     1  UNL1        0.0179
      3 C         140.2701  138.4477  159.0737 C.3     1  UNL1        0.0724
      4 N         141.7548  138.2470  159.0009 N.3     1  UNL1       -0.2689
      5 C         142.5381  137.9821  160.2524 C.3     1  UNL1        0.0724
      6 C         141.8366  137.9181  161.5767 C.3     1  UNL1        0.0179
      7 C         139.6504  138.0548  162.9738 C.3     1  UNL1        0.0851
      8 O         137.8486  139.6319  163.9819 O.2     1  UNL1       -0.2751
      9 C         139.2870  139.3205  163.6921 C.2     1  UNL1        0.2229
     10 N         140.3620  140.2750  164.1205 N.am    1  UNL1       -0.2986
     11 H         141.3061  140.0706  163.9302 H       1  UNL1        0.1500
     12 C         139.9986  141.5407  164.8387 C.3     1  UNL1        0.1170
     13 C         140.0681  141.5998  166.3359 C.ar    1  UNL1       -0.0003
     14 C         140.4495  142.8796  167.0190 C.ar    1  UNL1       -0.0015
     15 C         140.5190  142.9388  168.5162 C.ar    1  UNL1        0.0111
     16 C         140.2071  141.7182  169.3303 C.ar    1  UNL1        0.0577
     17 CL        140.2766  141.7773  170.8275 Cl      1  UNL1       -0.0822
     18 C         139.8257  140.4384  168.6472 C.ar    1  UNL1        0.0111
     19 C         139.7562  140.3792  167.1500 C.ar    1  UNL1       -0.0015
     20 C         139.5657  142.7472  164.0597 C.ar    1  UNL1        0.0028
     21 C         138.1102  143.0977  163.9673 C.ar    1  UNL1        0.0183
     22 C         137.6773  144.3043  163.1883 C.ar    1  UNL1        0.0986
     23 N         138.6999  145.1603  162.5017 N.ar    1  UNL1       -0.2423
     24 C         140.1554  144.8098  162.5941 C.ar    1  UNL1        0.0986
     25 C         140.5883  143.6032  163.3731 C.ar    1  UNL1        0.0183
     26 C         142.4563  138.3110  157.6765 C.3     1  UNL1        0.1007
     27 C         142.9702  137.0546  157.0384 C.ar    1  UNL1        0.0129
     28 C         143.6114  136.9509  155.6864 C.ar    1  UNL1        0.0176
     29 C         143.9706  135.5134  155.4527 C.ar    1  UNL1        0.0799
     30 N         143.5513  134.7286  156.6603 N.ar    1  UNL1       -0.3038
     31 C         142.9330  135.6811  157.6404 C.ar    1  UNL1        0.0772
     32 C         143.7206  133.2508  156.8539 C.ar    1  UNL1        0.0640
     33 C         142.8088  132.2925  156.1469 C.ar    1  UNL1        0.0175
     34 C         142.9781  130.8147  156.3404 C.ar    1  UNL1        0.0053
     35 C         144.0592  130.2953  157.2411 C.ar    1  UNL1        0.0715
     36 C         144.9711  131.2536  157.9482 C.ar    1  UNL1        0.0053
     37 C         144.8018  132.7314  157.7547 C.ar    1  UNL1        0.0175
     38 C         144.2285  128.8175  157.4347 C.3     1  UNL1        0.4186
     39 F         144.3978  127.3397  157.6284 F       1  UNL1       -0.1659
     40 F         145.0777  128.7531  156.1999 F       1  UNL1       -0.1659
     41 F         143.3793  128.8820  158.6696 F       1  UNL1       -0.1659
@<TRIPOS>BOND
     1     8     9    2
     2     9     7    1
     3     7     1    1
     4     1     2    1
     5     2     3    1
     6     3     4    1
     7     4    26    1
     8    26    27    1
     9    27    28   ar
    10    28    29   ar
    11    29    30   ar
    12    30    32    1
    13    32    33   ar
    14    33    34   ar
    15    34    35   ar
    16    35    38    1
    17    38    39    1
    18    38    40    1
    19    38    41    1
    20    35    36   ar
    21    36    37   ar
    22    30    31   ar
    23     4     5    1
    24     5     6    1
    25     9    10   am
    26    10    12    1
    27    12    20    1
    28    20    21   ar
    29    21    22   ar
    30    22    23   ar
    31    23    24   ar
    32    24    25   ar
    33    12    13    1
    34    13    14   ar
    35    14    15   ar
    36    15    16   ar
    37    16    17    1
    38    16    18   ar
    39    18    19   ar
    40     6     1    1
    41    25    20   ar
    42    19    13   ar
    43    31    27   ar
    44    37    32   ar
    45    10    11    1
@<TRIPOS>MOLECULE
*****
 41 45 0 0 0
SMALL
GASTEIGER

@<TRIPOS>ATOM
      1 C         141.6154  138.1745  162.3240 C.3     1  UNL1        0.0118
      2 C         143.0313  138.0387  161.8478 C.3     1  UNL1        0.0179
      3 C         143.3358  138.0785  160.3796 C.3     1  UNL1        0.0724
      4 N         142.2245  138.2541  159.3876 N.3     1  UNL1       -0.2689
      5 C         140.8086  138.3898  159.8638 C.3     1  UNL1        0.0724
      6 C         140.5040  138.3500  161.3320 C.3     1  UNL1        0.0179
      7 C         141.3108  138.1347  163.7923 C.3     1  UNL1        0.0851
      8 O         139.6240  139.2594  165.4170 O.2     1  UNL1       -0.2751
      9 C         140.7947  139.3611  164.4847 C.2     1  UNL1        0.2229
     10 N         141.4494  140.6893  164.2448 N.am    1  UNL1       -0.2986
     11 H         142.2177  140.7560  163.6330 H       1  UNL1        0.1500
     12 C         140.9333  141.9157  164.9373 C.3     1  UNL1        0.1170
     13 C         141.3349  142.2022  166.3538 C.ar    1  UNL1       -0.0003
     14 C         142.7563  141.9962  166.7867 C.ar    1  UNL1       -0.0015
     15 C         143.1579  142.2826  168.2032 C.ar    1  UNL1        0.0111
     16 C         142.1383  142.7752  169.1869 C.ar    1  UNL1        0.0577
     17 CL        142.5399  143.0616  170.6034 Cl      1  UNL1       -0.0822
     18 C         140.7169  142.9812  168.7541 C.ar    1  UNL1        0.0111
     19 C         140.3153  142.6947  167.3375 C.ar    1  UNL1       -0.0015
     20 C         140.0156  142.8557  164.2131 C.ar    1  UNL1        0.0028
     21 C         138.6312  142.4143  163.8412 C.ar    1  UNL1        0.0183
     22 C         137.7135  143.3543  163.1171 C.ar    1  UNL1        0.0986
     23 N         138.1803  144.7356  162.7649 N.ar    1  UNL1       -0.2423
     24 C         139.5647  145.1770  163.1369 C.ar    1  UNL1        0.0986
     25 C         140.4824  144.2370  163.8610 C.ar    1  UNL1        0.0183
     26 C         142.5291  138.2939  157.9194 C.3     1  UNL1        0.1007
     27 C         142.9856  137.0512  157.2142 C.ar    1  UNL1        0.0129
     28 C         143.5657  136.9842  155.8325 C.ar    1  UNL1        0.0176
     29 C         143.8808  135.5490  155.5312 C.ar    1  UNL1        0.0799
     30 N         143.4954  134.7289  156.7267 N.ar    1  UNL1       -0.3038
     31 C         142.9422  135.6574  157.7668 C.ar    1  UNL1        0.0772
     32 C         143.6383  133.2416  156.8588 C.ar    1  UNL1        0.0640
     33 C         144.7420  132.6655  157.6953 C.ar    1  UNL1        0.0175
     34 C         144.8848  131.1782  157.8274 C.ar    1  UNL1        0.0053
     35 C         143.9239  130.2670  157.1230 C.ar    1  UNL1        0.0715
     36 C         142.8202  130.8430  156.2864 C.ar    1  UNL1        0.0053
     37 C         142.6773  132.3303  156.1543 C.ar    1  UNL1        0.0175
     38 C         144.0668  128.7797  157.2551 C.3     1  UNL1        0.4186
     39 F         144.2095  127.2923  157.3872 F       1  UNL1       -0.1659
     40 F         145.1917  128.9741  158.2281 F       1  UNL1       -0.1659
     41 F         142.9417  128.5852  156.2821 F       1  UNL1       -0.1659
@<TRIPOS>BOND
     1     8     9    2
     2     9     7    1
     3     7     1    1
     4     1     2    1
     5     2     3    1
     6     3     4    1
     7     4    26    1
     8    26    27    1
     9    27    28   ar
    10    28    29   ar
    11    29    30   ar
    12    30    32    1
    13    32    33   ar
    14    33    34   ar
    15    34    35   ar
    16    35    38    1
    17    38    39    1
    18    38    40    1
    19    38    41    1
    20    35    36   ar
    21    36    37   ar
    22    30    31   ar
    23     4     5    1
    24     5     6    1
    25     9    10   am
    26    10    12    1
    27    12    20    1
    28    20    21   ar
    29    21    22   ar
    30    22    23   ar
    31    23    24   ar
    32    24    25   ar
    33    12    13    1
    34    13    14   ar
    35    14    15   ar
    36    15    16   ar
    37    16    17    1
    38    16    18   ar
    39    18    19   ar
    40     6     1    1
    41    25    20   ar
    42    19    13   ar
    43    31    27   ar
    44    37    32   ar
    45    10    11    1
@<TRIPOS>MOLECULE
*****
 41 45 0 0 0
SMALL
GASTEIGER

@<TRIPOS>ATOM
      1 C         137.7361  141.5847  162.2280 C.3     1  UNL1        0.0118
      2 C         137.5108  140.1559  161.8311 C.3     1  UNL1        0.0179
      3 C         137.7470  139.7251  160.4139 C.3     1  UNL1        0.0724
      4 N         138.2086  140.7231  159.3936 N.3     1  UNL1       -0.2689
      5 C         138.4339  142.1519  159.7906 C.3     1  UNL1        0.0724
      6 C         138.1976  142.5827  161.2078 C.3     1  UNL1        0.0179
      7 C         137.4998  142.0156  163.6453 C.3     1  UNL1        0.0851
      8 O         139.1947  143.6577  164.7319 O.2     1  UNL1       -0.2751
      9 C         138.6642  142.2655  164.5572 C.2     1  UNL1        0.2229
     10 N         139.2981  141.1233  165.2945 N.am    1  UNL1       -0.2986
     11 H         138.9499  140.2096  165.1799 H       1  UNL1        0.1500
     12 C         140.4625  141.3733  166.2065 C.3     1  UNL1        0.1170
     13 C         141.8535  141.4308  165.6481 C.ar    1  UNL1       -0.0003
     14 C         142.5060  142.7577  165.3955 C.ar    1  UNL1       -0.0015
     15 C         143.8970  142.8153  164.8372 C.ar    1  UNL1        0.0111
     16 C         144.6356  141.5460  164.5315 C.ar    1  UNL1        0.0577
     17 CL        146.0266  141.6036  163.9731 Cl      1  UNL1       -0.0822
     18 C         143.9832  140.2192  164.7841 C.ar    1  UNL1        0.0111
     19 C         142.5921  140.1616  165.3424 C.ar    1  UNL1       -0.0015
     20 C         140.2359  141.5657  167.6767 C.ar    1  UNL1        0.0028
     21 C         140.5318  142.8908  168.3141 C.ar    1  UNL1        0.0183
     22 C         140.3052  143.0832  169.7844 C.ar    1  UNL1        0.0986
     23 N         139.7827  141.9504  170.6172 N.ar    1  UNL1       -0.2423
     24 C         139.4867  140.6252  169.9798 C.ar    1  UNL1        0.0986
     25 C         139.7133  140.4329  168.5096 C.ar    1  UNL1        0.0183
     26 C         138.4449  140.2922  157.9763 C.3     1  UNL1        0.1007
     27 C         139.6982  139.5506  157.6170 C.ar    1  UNL1        0.0129
     28 C         141.0910  140.1064  157.6475 C.ar    1  UNL1        0.0176
     29 C         142.0324  139.0222  157.2134 C.ar    1  UNL1        0.0799
     30 N         141.2213  137.7963  156.9145 N.ar    1  UNL1       -0.3038
     31 C         139.7787  138.1228  157.1639 C.ar    1  UNL1        0.0772
     32 C         141.7585  136.4757  156.4481 C.ar    1  UNL1        0.0640
     33 C         142.9709  135.8852  157.1046 C.ar    1  UNL1        0.0175
     34 C         143.5081  134.5647  156.6382 C.ar    1  UNL1        0.0053
     35 C         142.8329  133.8347  155.5153 C.ar    1  UNL1        0.0715
     36 C         141.6203  134.4252  154.8587 C.ar    1  UNL1        0.0053
     37 C         141.0831  135.7457  155.3251 C.ar    1  UNL1        0.0175
     38 C         143.3701  132.5141  155.0489 C.3     1  UNL1        0.4186
     39 F         143.9072  131.1935  154.5824 F       1  UNL1       -0.1659
     40 F         144.6494  132.7736  155.7878 F       1  UNL1       -0.1659
     41 F         142.0907  132.2546  154.3100 F       1  UNL1       -0.1659
@<TRIPOS>BOND
     1     8     9    2
     2     9     7    1
     3     7     1    1
     4     1     2    1
     5     2     3    1
     6     3     4    1
     7     4    26    1
     8    26    27    1
     9    27    28   ar
    10    28    29   ar
    11    29    30   ar
    12    30    32    1
    13    32    33   ar
    14    33    34   ar
    15    34    35   ar
    16    35    38    1
    17    38    39    1
    18    38    40    1
    19    38    41    1
    20    35    36   ar
    21    36    37   ar
    22    30    31   ar
    23     4     5    1
    24     5     6    1
    25     9    10   am
    26    10    12    1
    27    12    20    1
    28    20    21   ar
    29    21    22   ar
    30    22    23   ar
    31    23    24   ar
    32    24    25   ar
    33    12    13    1
    34    13    14   ar
    35    14    15   ar
    36    15    16   ar
    37    16    17    1
    38    16    18   ar
    39    18    19   ar
    40     6     1    1
    41    25    20   ar
    42    19    13   ar
    43    31    27   ar
    44    37    32   ar
    45    10    11    1
@<TRIPOS>MOLECULE
*****
 41 45 0 0 0
SMALL
GASTEIGER

@<TRIPOS>ATOM
      1 C         141.6458  138.0001  162.5007 C.3     1  UNL1        0.0118
      2 C         140.4262  138.1739  161.6449 C.3     1  UNL1        0.0179
      3 C         140.5684  138.3335  160.1603 C.3     1  UNL1        0.0724
      4 N         141.9302  138.3193  159.5314 N.3     1  UNL1       -0.2689
      5 C         143.1497  138.1455  160.3872 C.3     1  UNL1        0.0724
      6 C         143.0075  137.9858  161.8719 C.3     1  UNL1        0.0179
      7 C         141.5036  137.8405  163.9855 C.3     1  UNL1        0.0851
      8 O         139.6347  138.5829  165.6305 O.2     1  UNL1       -0.2751
      9 C         140.8358  138.9125  164.7945 C.2     1  UNL1        0.2229
     10 N         141.3690  140.3144  164.7676 N.am    1  UNL1       -0.2986
     11 H         142.1573  140.5307  164.2190 H       1  UNL1        0.1500
     12 C         140.7012  141.3865  165.5767 C.3     1  UNL1        0.1170
     13 C         141.0232  141.5366  167.0340 C.ar    1  UNL1       -0.0003
     14 C         140.0492  141.0597  168.0703 C.ar    1  UNL1       -0.0015
     15 C         140.3712  141.2098  169.5276 C.ar    1  UNL1        0.0111
     16 C         141.6672  141.8369  169.9486 C.ar    1  UNL1        0.0577
     17 CL        141.9892  141.9870  171.4059 Cl      1  UNL1       -0.0822
     18 C         142.6412  142.3138  168.9123 C.ar    1  UNL1        0.0111
     19 C         142.3192  142.1636  167.4550 C.ar    1  UNL1       -0.0015
     20 C         139.7114  142.3084  164.9284 C.ar    1  UNL1        0.0028
     21 C         138.7999  141.7944  163.8537 C.ar    1  UNL1        0.0183
     22 C         137.8101  142.7164  163.2055 C.ar    1  UNL1        0.0986
     23 N         137.7317  144.1523  163.6319 N.ar    1  UNL1       -0.2423
     24 C         138.6431  144.6663  164.7066 C.ar    1  UNL1        0.0986
     25 C         139.6330  143.7443  165.3549 C.ar    1  UNL1        0.0183
     26 C         142.0723  138.4789  158.0467 C.3     1  UNL1        0.1007
     27 C         142.0137  137.2750  157.1539 C.ar    1  UNL1        0.0129
     28 C         141.0736  137.0765  156.0020 C.ar    1  UNL1        0.0176
     29 C         141.3637  135.7370  155.3924 C.ar    1  UNL1        0.0799
     30 N         142.4831  135.1076  156.1677 N.ar    1  UNL1       -0.3038
     31 C         142.8847  136.0581  157.2563 C.ar    1  UNL1        0.0772
     32 C         143.0935  133.7636  155.9010 C.ar    1  UNL1        0.0640
     33 C         144.1684  133.2356  156.8041 C.ar    1  UNL1        0.0175
     34 C         144.7788  131.8916  156.5375 C.ar    1  UNL1        0.0053
     35 C         144.3143  131.0757  155.3678 C.ar    1  UNL1        0.0715
     36 C         143.2394  131.6037  154.4646 C.ar    1  UNL1        0.0053
     37 C         142.6290  132.9476  154.7312 C.ar    1  UNL1        0.0175
     38 C         144.9248  129.7317  155.1011 C.3     1  UNL1        0.4186
     39 F         145.5352  128.3877  154.8344 F       1  UNL1       -0.1659
     40 F         144.9776  129.4631  156.5759 F       1  UNL1       -0.1659
     41 F         144.8719  130.0003  153.6262 F       1  UNL1       -0.1659
@<TRIPOS>BOND
     1     8     9    2
     2     9     7    1
     3     7     1    1
     4     1     2    1
     5     2     3    1
     6     3     4    1
     7     4    26    1
     8    26    27    1
     9    27    28   ar
    10    28    29   ar
    11    29    30   ar
    12    30    32    1
    13    32    33   ar
    14    33    34   ar
    15    34    35   ar
    16    35    38    1
    17    38    39    1
    18    38    40    1
    19    38    41    1
    20    35    36   ar
    21    36    37   ar
    22    30    31   ar
    23     4     5    1
    24     5     6    1
    25     9    10   am
    26    10    12    1
    27    12    20    1
    28    20    21   ar
    29    21    22   ar
    30    22    23   ar
    31    23    24   ar
    32    24    25   ar
    33    12    13    1
    34    13    14   ar
    35    14    15   ar
    36    15    16   ar
    37    16    17    1
    38    16    18   ar
    39    18    19   ar
    40     6     1    1
    41    25    20   ar
    42    19    13   ar
    43    31    27   ar
    44    37    32   ar
    45    10    11    1
@<TRIPOS>MOLECULE
*****
 41 45 0 0 0
SMALL
GASTEIGER

@<TRIPOS>ATOM
      1 C         140.2647  138.0335  161.9107 C.3     1  UNL1        0.0118
      2 C         141.7233  137.7256  161.7440 C.3     1  UNL1        0.0179
      3 C         142.3463  137.7619  160.3801 C.3     1  UNL1        0.0724
      4 N         141.5108  138.1061  159.1828 N.3     1  UNL1       -0.2689
      5 C         140.0523  138.4140  159.3495 C.3     1  UNL1        0.0724
      6 C         139.4292  138.3777  160.7134 C.3     1  UNL1        0.0179
      7 C         139.6416  137.9972  163.2748 C.3     1  UNL1        0.0851
      8 O         138.8511  140.1624  164.4734 O.2     1  UNL1       -0.2751
      9 C         139.8970  139.1115  164.2458 C.2     1  UNL1        0.2229
     10 N         141.1982  139.1749  164.9894 N.am    1  UNL1       -0.2986
     11 H         141.8847  138.4852  164.8400 H       1  UNL1        0.1500
     12 C         141.4536  140.2893  165.9605 C.3     1  UNL1        0.1170
     13 C         142.0607  141.5753  165.4835 C.ar    1  UNL1       -0.0003
     14 C         141.1865  142.6484  164.9054 C.ar    1  UNL1       -0.0015
     15 C         141.7936  143.9344  164.4285 C.ar    1  UNL1        0.0111
     16 C         143.2749  144.1474  164.5296 C.ar    1  UNL1        0.0577
     17 CL        143.8821  145.4334  164.0526 Cl      1  UNL1       -0.0822
     18 C         144.1492  143.0743  165.1076 C.ar    1  UNL1        0.0111
     19 C         143.5421  141.7882  165.5846 C.ar    1  UNL1       -0.0015
     20 C         141.1018  140.1176  167.4085 C.ar    1  UNL1        0.0028
     21 C         142.1514  139.6858  168.3892 C.ar    1  UNL1        0.0183
     22 C         141.7997  139.5141  169.8372 C.ar    1  UNL1        0.0986
     23 N         140.3983  139.7742  170.3045 N.ar    1  UNL1       -0.2423
     24 C         139.3487  140.2059  169.3238 C.ar    1  UNL1        0.0986
     25 C         139.7004  140.3776  167.8758 C.ar    1  UNL1        0.0183
     26 C         142.1339  138.1424  157.8187 C.3     1  UNL1        0.1007
     27 C         142.0482  136.9424  156.9229 C.ar    1  UNL1        0.0129
     28 C         141.0404  136.7259  155.8331 C.ar    1  UNL1        0.0176
     29 C         141.3245  135.3980  155.1961 C.ar    1  UNL1        0.0799
     30 N         142.5079  134.7936  155.8923 N.ar    1  UNL1       -0.3038
     31 C         142.9551  135.7481  156.9594 C.ar    1  UNL1        0.0772
     32 C         143.1340  133.4676  155.5766 C.ar    1  UNL1        0.0640
     33 C         142.7197  132.7165  154.3462 C.ar    1  UNL1        0.0175
     34 C         143.3459  131.3905  154.0306 C.ar    1  UNL1        0.0053
     35 C         144.3863  130.8156  154.9454 C.ar    1  UNL1        0.0715
     36 C         144.8006  131.5667  156.1759 C.ar    1  UNL1        0.0053
     37 C         144.1745  132.8927  156.4915 C.ar    1  UNL1        0.0175
     38 C         145.0124  129.4896  154.6297 C.3     1  UNL1        0.4186
     39 F         145.6386  128.1635  154.3142 F       1  UNL1       -0.1659
     40 F         144.9126  129.7914  153.1638 F       1  UNL1       -0.1659
     41 F         145.1122  129.1877  156.0957 F       1  UNL1       -0.1659
@<TRIPOS>BOND
     1     8     9    2
     2     9     7    1
     3     7     1    1
     4     1     2    1
     5     2     3    1
     6     3     4    1
     7     4    26    1
     8    26    27    1
     9    27    28   ar
    10    28    29   ar
    11    29    30   ar
    12    30    32    1
    13    32    33   ar
    14    33    34   ar
    15    34    35   ar
    16    35    38    1
    17    38    39    1
    18    38    40    1
    19    38    41    1
    20    35    36   ar
    21    36    37   ar
    22    30    31   ar
    23     4     5    1
    24     5     6    1
    25     9    10   am
    26    10    12    1
    27    12    20    1
    28    20    21   ar
    29    21    22   ar
    30    22    23   ar
    31    23    24   ar
    32    24    25   ar
    33    12    13    1
    34    13    14   ar
    35    14    15   ar
    36    15    16   ar
    37    16    17    1
    38    16    18   ar
    39    18    19   ar
    40     6     1    1
    41    25    20   ar
    42    19    13   ar
    43    31    27   ar
    44    37    32   ar
    45    10    11    1
@<TRIPOS>MOLECULE
*****
 41 45 0 0 0
SMALL
GASTEIGER

@<TRIPOS>ATOM
      1 C         144.1367  139.4213  162.0088 C.3     1  UNL1        0.0118
      2 C         143.6018  138.0303  161.8391 C.3     1  UNL1        0.0179
      3 C         142.9736  137.6216  160.5398 C.3     1  UNL1        0.0724
      4 N         142.8803  138.6040  159.4101 N.3     1  UNL1       -0.2689
      5 C         143.4152  139.9950  159.5797 C.3     1  UNL1        0.0724
      6 C         144.0434  140.4037  160.8791 C.3     1  UNL1        0.0179
      7 C         144.7650  139.8301  163.3082 C.3     1  UNL1        0.0851
      8 O         144.4045  142.0858  164.5458 O.2     1  UNL1       -0.2751
      9 C         143.9926  140.6674  164.2840 C.2     1  UNL1        0.2229
     10 N         142.8083  140.0863  164.9981 N.am    1  UNL1       -0.2986
     11 H         142.5380  139.1554  164.8263 H       1  UNL1        0.1500
     12 C         142.0360  140.9236  165.9740 C.3     1  UNL1        0.1170
     13 C         140.8944  141.7711  165.4961 C.ar    1  UNL1       -0.0003
     14 C         139.5387  141.1604  165.2976 C.ar    1  UNL1       -0.0015
     15 C         138.3970  142.0078  164.8197 C.ar    1  UNL1        0.0111
     16 C         138.6110  143.4659  164.5402 C.ar    1  UNL1        0.0577
     17 CL        137.4693  144.3134  164.0623 Cl      1  UNL1       -0.0822
     18 C         139.9666  144.0766  164.7386 C.ar    1  UNL1        0.0111
     19 C         141.1083  143.2292  165.2165 C.ar    1  UNL1       -0.0015
     20 C         142.4053  140.9135  167.4278 C.ar    1  UNL1        0.0028
     21 C         142.1311  139.6981  168.2629 C.ar    1  UNL1        0.0183
     22 C         142.5004  139.6880  169.7166 C.ar    1  UNL1        0.0986
     23 N         143.1439  140.8933  170.3354 N.ar    1  UNL1       -0.2423
     24 C         143.4182  142.1088  169.5003 C.ar    1  UNL1        0.0986
     25 C         143.0489  142.1189  168.0465 C.ar    1  UNL1        0.0183
     26 C         142.2520  138.1953  158.1107 C.3     1  UNL1        0.1007
     27 C         142.8819  137.1173  157.2794 C.ar    1  UNL1        0.0129
     28 C         143.5526  137.3067  155.9512 C.ar    1  UNL1        0.0176
     29 C         144.0370  135.9671  155.4813 C.ar    1  UNL1        0.0799
     30 N         143.6656  134.9497  156.5191 N.ar    1  UNL1       -0.3038
     31 C         142.9518  135.6606  157.6304 C.ar    1  UNL1        0.0772
     32 C         143.9570  133.4796  156.4566 C.ar    1  UNL1        0.0640
     33 C         143.6104  132.6981  155.2241 C.ar    1  UNL1        0.0175
     34 C         143.9017  131.2280  155.1616 C.ar    1  UNL1        0.0053
     35 C         144.5396  130.5394  156.3315 C.ar    1  UNL1        0.0715
     36 C         144.8863  131.3209  157.5640 C.ar    1  UNL1        0.0053
     37 C         144.5949  132.7910  157.6265 C.ar    1  UNL1        0.0175
     38 C         144.8310  129.0694  156.2689 C.3     1  UNL1        0.4186
     39 F         145.1223  127.5992  156.2063 F       1  UNL1       -0.1659
     40 F         144.9850  129.0364  157.7606 F       1  UNL1       -0.1659
     41 F         144.6770  129.1023  154.7771 F       1  UNL1       -0.1659
@<TRIPOS>BOND
     1     8     9    2
     2     9     7    1
     3     7     1    1
     4     1     2    1
     5     2     3    1
     6     3     4    1
     7     4    26    1
     8    26    27    1
     9    27    28   ar
    10    28    29   ar
    11    29    30   ar
    12    30    32    1
    13    32    33   ar
    14    33    34   ar
    15    34    35   ar
    16    35    38    1
    17    38    39    1
    18    38    40    1
    19    38    41    1
    20    35    36   ar
    21    36    37   ar
    22    30    31   ar
    23     4     5    1
    24     5     6    1
    25     9    10   am
    26    10    12    1
    27    12    20    1
    28    20    21   ar
    29    21    22   ar
    30    22    23   ar
    31    23    24   ar
    32    24    25   ar
    33    12    13    1
    34    13    14   ar
    35    14    15   ar
    36    15    16   ar
    37    16    17    1
    38    16    18   ar
    39    18    19   ar
    40     6     1    1
    41    25    20   ar
    42    19    13   ar
    43    31    27   ar
    44    37    32   ar
    45    10    11    1
@<TRIPOS>MOLECULE
*****
 41 45 0 0 0
SMALL
GASTEIGER

@<TRIPOS>ATOM
      1 C         143.2657  138.7139  162.4404 C.3     1  UNL1        0.0118
      2 C         144.1830  139.3477  161.4369 C.3     1  UNL1        0.0179
      3 C         143.8708  139.2561  159.9727 C.3     1  UNL1        0.0724
      4 N         142.6413  138.5308  159.5119 N.3     1  UNL1       -0.2689
      5 C         141.7240  137.8970  160.5153 C.3     1  UNL1        0.0724
      6 C         142.0363  137.9886  161.9796 C.3     1  UNL1        0.0179
      7 C         143.5779  138.8055  163.9047 C.3     1  UNL1        0.0851
      8 O         143.3262  141.1256  165.0464 O.2     1  UNL1       -0.2751
      9 C         142.8027  139.7455  164.7795 C.2     1  UNL1        0.2229
     10 N         141.5039  139.3055  165.3874 N.am    1  UNL1       -0.2986
     11 H         141.1603  138.3997  165.2123 H       1  UNL1        0.1500
     12 C         140.7286  140.2455  166.2622 C.3     1  UNL1        0.1170
     13 C         139.8922  141.3268  165.6449 C.ar    1  UNL1       -0.0003
     14 C         140.3064  142.7626  165.7762 C.ar    1  UNL1       -0.0015
     15 C         139.4699  143.8439  165.1589 C.ar    1  UNL1        0.0111
     16 C         138.2193  143.4895  164.4103 C.ar    1  UNL1        0.0577
     17 CL        137.3828  144.5708  163.7930 Cl      1  UNL1       -0.0822
     18 C         137.8051  142.0538  164.2790 C.ar    1  UNL1        0.0111
     19 C         138.6416  140.9724  164.8964 C.ar    1  UNL1       -0.0015
     20 C         140.7898  140.1042  167.7543 C.ar    1  UNL1        0.0028
     21 C         142.0699  139.6882  168.4164 C.ar    1  UNL1        0.0183
     22 C         142.1311  139.5469  169.9085 C.ar    1  UNL1        0.0986
     23 N         140.9123  139.8217  170.7385 N.ar    1  UNL1       -0.2423
     24 C         139.6322  140.2377  170.0764 C.ar    1  UNL1        0.0986
     25 C         139.5710  140.3790  168.5843 C.ar    1  UNL1        0.0183
     26 C         142.3291  138.4392  158.0475 C.3     1  UNL1        0.1007
     27 C         142.9042  137.3235  157.2264 C.ar    1  UNL1        0.0129
     28 C         143.4990  137.4536  155.8556 C.ar    1  UNL1        0.0176
     29 C         143.9479  136.0922  155.4139 C.ar    1  UNL1        0.0799
     30 N         143.6304  135.1206  156.5117 N.ar    1  UNL1       -0.3038
     31 C         142.9854  135.8816  157.6319 C.ar    1  UNL1        0.0772
     32 C         143.9091  133.6469  156.4927 C.ar    1  UNL1        0.0640
     33 C         144.4937  132.9784  157.7015 C.ar    1  UNL1        0.0175
     34 C         144.7724  131.5047  157.6825 C.ar    1  UNL1        0.0053
     35 C         144.4664  130.6994  156.4546 C.ar    1  UNL1        0.0715
     36 C         143.8818  131.3678  155.2457 C.ar    1  UNL1        0.0053
     37 C         143.6031  132.8415  155.2648 C.ar    1  UNL1        0.0175
     38 C         144.7451  129.2256  156.4356 C.3     1  UNL1        0.4186
     39 F         145.0237  127.7518  156.4166 F       1  UNL1       -0.1659
     40 F         144.9592  129.2853  154.9522 F       1  UNL1       -0.1659
     41 F         144.5309  129.1659  157.9191 F       1  UNL1       -0.1659
@<TRIPOS>BOND
     1     8     9    2
     2     9     7    1
     3     7     1    1
     4     1     2    1
     5     2     3    1
     6     3     4    1
     7     4    26    1
     8    26    27    1
     9    27    28   ar
    10    28    29   ar
    11    29    30   ar
    12    30    32    1
    13    32    33   ar
    14    33    34   ar
    15    34    35   ar
    16    35    38    1
    17    38    39    1
    18    38    40    1
    19    38    41    1
    20    35    36   ar
    21    36    37   ar
    22    30    31   ar
    23     4     5    1
    24     5     6    1
    25     9    10   am
    26    10    12    1
    27    12    20    1
    28    20    21   ar
    29    21    22   ar
    30    22    23   ar
    31    23    24   ar
    32    24    25   ar
    33    12    13    1
    34    13    14   ar
    35    14    15   ar
    36    15    16   ar
    37    16    17    1
    38    16    18   ar
    39    18    19   ar
    40     6     1    1
    41    25    20   ar
    42    19    13   ar
    43    31    27   ar
    44    37    32   ar
    45    10    11    1
@<TRIPOS>MOLECULE
*****
 41 45 0 0 0
SMALL
GASTEIGER

@<TRIPOS>ATOM
      1 C         140.3488  138.2683  161.4030 C.3     1  UNL1        0.0118
      2 C         139.4058  138.4526  160.2512 C.3     1  UNL1        0.0179
      3 C         139.9211  138.3959  158.8437 C.3     1  UNL1        0.0724
      4 N         141.3794  138.1549  158.5879 N.3     1  UNL1       -0.2689
      5 C         142.3223  137.9706  159.7398 C.3     1  UNL1        0.0724
      6 C         141.8071  138.0273  161.1473 C.3     1  UNL1        0.0179
      7 C         139.8335  138.3249  162.8107 C.3     1  UNL1        0.0851
      8 O         139.9085  140.6957  163.8707 O.2     1  UNL1       -0.2751
      9 C         140.4307  139.2919  163.7896 C.2     1  UNL1        0.2229
     10 N         141.5502  138.8551  164.6874 N.am    1  UNL1       -0.2986
     11 H         141.8930  137.9337  164.6342 H       1  UNL1        0.1500
     12 C         142.1474  139.8221  165.6663 C.3     1  UNL1        0.1170
     13 C         141.6570  139.8535  167.0835 C.ar    1  UNL1       -0.0003
     14 C         142.5677  139.4404  168.2016 C.ar    1  UNL1       -0.0015
     15 C         142.0774  139.4718  169.6188 C.ar    1  UNL1        0.0111
     16 C         140.6764  139.9164  169.9180 C.ar    1  UNL1        0.0577
     17 CL        140.1860  139.9479  171.3352 Cl      1  UNL1       -0.0822
     18 C         139.7657  140.3296  168.8000 C.ar    1  UNL1        0.0111
     19 C         140.2560  140.2981  167.3827 C.ar    1  UNL1       -0.0015
     20 C         143.2349  140.7576  165.2280 C.ar    1  UNL1        0.0028
     21 C         143.2131  142.1915  165.6676 C.ar    1  UNL1        0.0183
     22 C         144.3006  143.1270  165.2293 C.ar    1  UNL1        0.0986
     23 N         145.4100  142.6286  164.3514 N.ar    1  UNL1       -0.2423
     24 C         145.4318  141.1946  163.9118 C.ar    1  UNL1        0.0986
     25 C         144.3443  140.2591  164.3501 C.ar    1  UNL1        0.0183
     26 C         141.8946  138.0983  157.1803 C.3     1  UNL1        0.1007
     27 C         141.8450  136.8093  156.4148 C.ar    1  UNL1        0.0129
     28 C         140.8209  136.4343  155.3850 C.ar    1  UNL1        0.0176
     29 C         141.1537  135.0622  154.8784 C.ar    1  UNL1        0.0799
     30 N         142.3836  134.5892  155.5951 N.ar    1  UNL1       -0.3038
     31 C         142.8108  135.6689  156.5447 C.ar    1  UNL1        0.0772
     32 C         143.0663  133.2684  155.3971 C.ar    1  UNL1        0.0640
     33 C         144.1324  132.8241  156.3542 C.ar    1  UNL1        0.0175
     34 C         144.8151  131.5033  156.1562 C.ar    1  UNL1        0.0053
     35 C         144.4318  130.6267  155.0010 C.ar    1  UNL1        0.0715
     36 C         143.3658  131.0709  154.0438 C.ar    1  UNL1        0.0053
     37 C         142.6830  132.3917  154.2418 C.ar    1  UNL1        0.0175
     38 C         145.1145  129.3059  154.8029 C.3     1  UNL1        0.4186
     39 F         145.7973  127.9850  154.6050 F       1  UNL1       -0.1659
     40 F         145.1576  129.5500  153.3236 F       1  UNL1       -0.1659
     41 F         145.0715  129.0617  156.2824 F       1  UNL1       -0.1659
@<TRIPOS>BOND
     1     8     9    2
     2     9     7    1
     3     7     1    1
     4     1     2    1
     5     2     3    1
     6     3     4    1
     7     4    26    1
     8    26    27    1
     9    27    28   ar
    10    28    29   ar
    11    29    30   ar
    12    30    32    1
    13    32    33   ar
    14    33    34   ar
    15    34    35   ar
    16    35    38    1
    17    38    39    1
    18    38    40    1
    19    38    41    1
    20    35    36   ar
    21    36    37   ar
    22    30    31   ar
    23     4     5    1
    24     5     6    1
    25     9    10   am
    26    10    12    1
    27    12    20    1
    28    20    21   ar
    29    21    22   ar
    30    22    23   ar
    31    23    24   ar
    32    24    25   ar
    33    12    13    1
    34    13    14   ar
    35    14    15   ar
    36    15    16   ar
    37    16    17    1
    38    16    18   ar
    39    18    19   ar
    40     6     1    1
    41    25    20   ar
    42    19    13   ar
    43    31    27   ar
    44    37    32   ar
    45    10    11    1
@<TRIPOS>MOLECULE
*****
 41 45 0 0 0
SMALL
GASTEIGER

@<TRIPOS>ATOM
      1 C         143.9814  139.4521  161.9389 C.3     1  UNL1        0.0118
      2 C         143.4811  138.0538  161.7280 C.3     1  UNL1        0.0179
      3 C         142.9111  137.6536  160.3995 C.3     1  UNL1        0.0724
      4 N         142.8415  138.6516  159.2819 N.3     1  UNL1       -0.2689
      5 C         143.3418  140.0499  159.4928 C.3     1  UNL1        0.0724
      6 C         143.9117  140.4501  160.8213 C.3     1  UNL1        0.0179
      7 C         144.5513  139.8524  163.2675 C.3     1  UNL1        0.0851
      8 O         144.5336  142.0526  164.6490 O.2     1  UNL1       -0.2751
      9 C         143.8214  140.8387  164.1303 C.2     1  UNL1        0.2229
     10 N         142.3792  140.6110  164.4743 N.am    1  UNL1       -0.2986
     11 H         141.9117  139.8143  164.1339 H       1  UNL1        0.1500
     12 C         141.6493  141.5973  165.3371 C.3     1  UNL1        0.1170
     13 C         141.7007  141.4693  166.8307 C.ar    1  UNL1       -0.0003
     14 C         140.6899  140.6227  167.5462 C.ar    1  UNL1       -0.0015
     15 C         140.7413  140.4947  169.0398 C.ar    1  UNL1        0.0111
     16 C         141.8034  141.2132  169.8180 C.ar    1  UNL1        0.0577
     17 CL        141.8548  141.0852  171.3117 Cl      1  UNL1       -0.0822
     18 C         142.8142  142.0597  169.1027 C.ar    1  UNL1        0.0111
     19 C         142.7628  142.1877  167.6090 C.ar    1  UNL1       -0.0015
     20 C         140.8680  142.7116  164.7063 C.ar    1  UNL1        0.0028
     21 C         139.9212  143.5270  165.5360 C.ar    1  UNL1        0.0183
     22 C         139.1399  144.6413  164.9052 C.ar    1  UNL1        0.0986
     23 N         139.3054  144.9401  163.4446 N.ar    1  UNL1       -0.2423
     24 C         140.2522  144.1247  162.6149 C.ar    1  UNL1        0.0986
     25 C         141.0335  143.0104  163.2457 C.ar    1  UNL1        0.0183
     26 C         142.2715  138.2513  157.9534 C.3     1  UNL1        0.1007
     27 C         142.9045  137.1399  157.1699 C.ar    1  UNL1        0.0129
     28 C         143.5968  137.2773  155.8463 C.ar    1  UNL1        0.0176
     29 C         144.0765  135.9182  155.4308 C.ar    1  UNL1        0.0799
     30 N         143.6807  134.9407  156.4976 N.ar    1  UNL1       -0.3038
     31 C         142.9564  135.6958  157.5724 C.ar    1  UNL1        0.0772
     32 C         143.9602  133.4670  156.4907 C.ar    1  UNL1        0.0640
     33 C         143.6153  132.6438  155.2853 C.ar    1  UNL1        0.0175
     34 C         143.8947  131.1701  155.2784 C.ar    1  UNL1        0.0053
     35 C         144.5192  130.5196  156.4770 C.ar    1  UNL1        0.0715
     36 C         144.8642  131.3428  157.6826 C.ar    1  UNL1        0.0053
     37 C         144.5847  132.8165  157.6894 C.ar    1  UNL1        0.0175
     38 C         144.7986  129.0459  156.4702 C.3     1  UNL1        0.4186
     39 F         145.0782  127.5722  156.4633 F       1  UNL1       -0.1659
     40 F         144.2506  128.9355  157.8621 F       1  UNL1       -0.1659
     41 F         145.3468  129.1563  155.0782 F       1  UNL1       -0.1659
@<TRIPOS>BOND
     1     8     9    2
     2     9     7    1
     3     7     1    1
     4     1     2    1
     5     2     3    1
     6     3     4    1
     7     4    26    1
     8    26    27    1
     9    27    28   ar
    10    28    29   ar
    11    29    30   ar
    12    30    32    1
    13    32    33   ar
    14    33    34   ar
    15    34    35   ar
    16    35    38    1
    17    38    39    1
    18    38    40    1
    19    38    41    1
    20    35    36   ar
    21    36    37   ar
    22    30    31   ar
    23     4     5    1
    24     5     6    1
    25     9    10   am
    26    10    12    1
    27    12    20    1
    28    20    21   ar
    29    21    22   ar
    30    22    23   ar
    31    23    24   ar
    32    24    25   ar
    33    12    13    1
    34    13    14   ar
    35    14    15   ar
    36    15    16   ar
    37    16    17    1
    38    16    18   ar
    39    18    19   ar
    40     6     1    1
    41    25    20   ar
    42    19    13   ar
    43    31    27   ar
    44    37    32   ar
    45    10    11    1
