@<TRIPOS>MOLECULE
*****
 21 23 0 0 0
SMALL
GASTEIGER

@<TRIPOS>ATOM
      1 C         140.7167  140.6123  166.4130 C.ar    1  UNL1        0.0266
      2 C         141.1214  139.1874  166.1768 C.ar    1  UNL1        0.0994
      3 N         140.5203  138.4157  165.0398 N.ar    1  UNL1       -0.2423
      4 C         139.5143  139.0688  164.1389 C.ar    1  UNL1        0.0985
      5 C         138.7569  138.5633  162.9469 C.ar    1  UNL1        0.0392
      6 C         137.8841  139.6758  162.4464 C.ar    1  UNL1        0.0779
      7 N         138.1021  140.8689  163.3291 N.ar    1  UNL1       -0.3165
      8 C         139.1096  140.4937  164.3751 C.ar    1  UNL1        0.0782
      9 C         139.7108  141.2654  165.5122 C.ar    1  UNL1        0.0208
     10 C         144.1840  142.5275  169.9046 C.3     1  UNL1        0.0316
     11 C         142.9116  142.2644  169.1550 C.ar    1  UNL1       -0.0149
     12 C         141.5744  142.8792  169.4448 C.ar    1  UNL1        0.0312
     13 S         140.5894  142.3351  168.4529 S.2     1  UNL1       -0.0867
     14 C         141.3179  141.3841  167.5501 C.ar    1  UNL1        0.0307
     15 C         142.7531  141.3405  167.9841 C.ar    1  UNL1        0.0028
     16 C         137.4305  142.2029  163.1902 C.3     1  UNL1        0.1920
     17 C         138.0795  143.2891  162.3846 C.2     1  UNL1        0.2488
     18 O         138.1478  143.1758  160.8905 O.2     1  UNL1       -0.2728
     19 N         138.6602  144.4885  163.0732 N.am    1  UNL1       -0.2744
     20 C         139.3092  145.5747  162.2676 C.3     1  UNL1        0.1150
     21 C         138.5919  144.6019  164.5673 C.3     1  UNL1        0.1150
@<TRIPOS>BOND
     1    10    11    1
     2    11    12   ar
     3    12    13   ar
     4    13    14   ar
     5    14     1    1
     6     1     2   ar
     7     2     3   ar
     8     3     4   ar
     9     4     5   ar
    10     5     6   ar
    11     6     7   ar
    12     7    16    1
    13    16    17    1
    14    17    18    2
    15    17    19   am
    16    19    20    1
    17    19    21    1
    18     7     8   ar
    19     8     9   ar
    20    14    15   ar
    21    15    11   ar
    22     9     1   ar
    23     8     4   ar
@<TRIPOS>MOLECULE
*****
 21 23 0 0 0
SMALL
GASTEIGER

@<TRIPOS>ATOM
      1 C         140.2257  141.2438  166.6586 C.ar    1  UNL1        0.0266
      2 C         139.2682  140.1050  166.4681 C.ar    1  UNL1        0.0994
      3 N         138.2627  140.1486  165.3559 N.ar    1  UNL1       -0.2423
      4 C         138.2147  141.3310  164.4341 C.ar    1  UNL1        0.0985
      5 C         137.3403  141.6522  163.2584 C.ar    1  UNL1        0.0392
      6 C         137.7574  142.9895  162.7222 C.ar    1  UNL1        0.0779
      7 N         138.8896  143.4948  163.5666 N.ar    1  UNL1       -0.3165
      8 C         139.1722  142.4698  164.6246 C.ar    1  UNL1        0.0782
      9 C         140.1777  142.4262  165.7368 C.ar    1  UNL1        0.0208
     10 C         144.2302  142.5061  169.8604 C.3     1  UNL1        0.0316
     11 C         143.0719  141.7805  169.2425 C.ar    1  UNL1       -0.0149
     12 C         142.4852  140.4859  169.7223 C.ar    1  UNL1        0.0312
     13 S         141.3476  140.1274  168.8127 S.2     1  UNL1       -0.0867
     14 C         141.2312  141.2003  167.7708 C.ar    1  UNL1        0.0307
     15 C         142.2969  142.2219  168.0365 C.ar    1  UNL1        0.0028
     16 C         139.6122  144.7966  163.3849 C.3     1  UNL1        0.1920
     17 C         139.9118  145.3018  162.0047 C.2     1  UNL1        0.2488
     18 O         139.1199  146.4411  161.4347 O.2     1  UNL1       -0.2728
     19 N         141.0034  144.6678  161.1944 N.am    1  UNL1       -0.2744
     20 C         141.3030  145.1730  159.8142 C.3     1  UNL1        0.1150
     21 C         141.7954  143.5286  161.7643 C.3     1  UNL1        0.1150
@<TRIPOS>BOND
     1    10    11    1
     2    11    12   ar
     3    12    13   ar
     4    13    14   ar
     5    14     1    1
     6     1     2   ar
     7     2     3   ar
     8     3     4   ar
     9     4     5   ar
    10     5     6   ar
    11     6     7   ar
    12     7    16    1
    13    16    17    1
    14    17    18    2
    15    17    19   am
    16    19    20    1
    17    19    21    1
    18     7     8   ar
    19     8     9   ar
    20    14    15   ar
    21    15    11   ar
    22     9     1   ar
    23     8     4   ar
@<TRIPOS>MOLECULE
*****
 21 23 0 0 0
SMALL
GASTEIGER

@<TRIPOS>ATOM
      1 C         139.8825  140.0155  166.6148 C.ar    1  UNL1        0.0266
      2 C         138.5678  139.4800  166.1302 C.ar    1  UNL1        0.0994
      3 N         138.5096  138.6538  164.8797 N.ar    1  UNL1       -0.2423
      4 C         139.7660  138.3632  164.1136 C.ar    1  UNL1        0.0985
      5 C         140.0176  137.5844  162.8565 C.ar    1  UNL1        0.0392
      6 C         141.4879  137.6386  162.5641 C.ar    1  UNL1        0.0779
      7 N         142.1448  138.4509  163.6405 N.ar    1  UNL1       -0.3165
      8 C         141.0807  138.8987  164.5981 C.ar    1  UNL1        0.0782
      9 C         141.1389  139.7249  165.8487 C.ar    1  UNL1        0.0208
     10 C         140.6064  144.0580  169.9338 C.3     1  UNL1        0.0316
     11 C         140.2735  142.6998  169.3910 C.ar    1  UNL1       -0.0149
     12 C         139.7873  141.5263  170.1889 C.ar    1  UNL1        0.0312
     13 S         139.5816  140.3780  169.2460 S.2     1  UNL1       -0.0867
     14 C         139.9407  140.8418  167.8654 C.ar    1  UNL1        0.0307
     15 C         140.3683  142.2767  167.9550 C.ar    1  UNL1        0.0028
     16 C         143.6090  138.7610  163.7416 C.3     1  UNL1        0.1920
     17 C         144.0988  140.1570  163.4941 C.2     1  UNL1        0.2488
     18 O         144.3066  141.0942  164.6466 O.2     1  UNL1       -0.2728
     19 N         144.3808  140.6157  162.0941 N.am    1  UNL1       -0.2744
     20 C         144.8706  142.0117  161.8466 C.3     1  UNL1        0.1150
     21 C         144.1731  139.6785  160.9415 C.3     1  UNL1        0.1150
@<TRIPOS>BOND
     1    10    11    1
     2    11    12   ar
     3    12    13   ar
     4    13    14   ar
     5    14     1    1
     6     1     2   ar
     7     2     3   ar
     8     3     4   ar
     9     4     5   ar
    10     5     6   ar
    11     6     7   ar
    12     7    16    1
    13    16    17    1
    14    17    18    2
    15    17    19   am
    16    19    20    1
    17    19    21    1
    18     7     8   ar
    19     8     9   ar
    20    14    15   ar
    21    15    11   ar
    22     9     1   ar
    23     8     4   ar
@<TRIPOS>MOLECULE
*****
 21 23 0 0 0
SMALL
GASTEIGER

@<TRIPOS>ATOM
      1 C         141.9436  139.2261  165.6552 C.ar    1  UNL1        0.0266
      2 C         141.3492  138.0249  164.9816 C.ar    1  UNL1        0.0994
      3 N         141.7444  137.6810  163.5761 N.ar    1  UNL1       -0.2423
      4 C         142.7340  138.5384  162.8442 C.ar    1  UNL1        0.0985
      5 C         143.3107  138.4491  161.4623 C.ar    1  UNL1        0.0392
      6 C         144.2615  139.5952  161.2819 C.ar    1  UNL1        0.0779
      7 N         144.2724  140.3927  162.5523 N.ar    1  UNL1       -0.3165
      8 C         143.3284  139.7396  163.5178 C.ar    1  UNL1        0.0782
      9 C         142.9332  140.0834  164.9233 C.ar    1  UNL1        0.0208
     10 C         139.0719  140.5600  169.8808 C.3     1  UNL1        0.0316
     11 C         140.2284  140.1831  169.0030 C.ar    1  UNL1       -0.0149
     12 C         141.6522  140.0152  169.4444 C.ar    1  UNL1        0.0312
     13 S         142.4680  139.6362  168.2440 S.2     1  UNL1       -0.0867
     14 C         141.5484  139.5699  167.0608 C.ar    1  UNL1        0.0307
     15 C         140.1643  139.9079  167.5299 C.ar    1  UNL1        0.0028
     16 C         145.0847  141.6267  162.8116 C.3     1  UNL1        0.1920
     17 C         144.4716  142.9823  162.6200 C.2     1  UNL1        0.2488
     18 O         144.1439  143.4688  161.2395 O.2     1  UNL1       -0.2728
     19 N         144.1862  143.8512  163.8089 N.am    1  UNL1       -0.2744
     20 C         143.5731  145.2067  163.6173 C.3     1  UNL1        0.1150
     21 C         144.5139  143.3647  165.1894 C.3     1  UNL1        0.1150
@<TRIPOS>BOND
     1    10    11    1
     2    11    12   ar
     3    12    13   ar
     4    13    14   ar
     5    14     1    1
     6     1     2   ar
     7     2     3   ar
     8     3     4   ar
     9     4     5   ar
    10     5     6   ar
    11     6     7   ar
    12     7    16    1
    13    16    17    1
    14    17    18    2
    15    17    19   am
    16    19    20    1
    17    19    21    1
    18     7     8   ar
    19     8     9   ar
    20    14    15   ar
    21    15    11   ar
    22     9     1   ar
    23     8     4   ar
@<TRIPOS>MOLECULE
*****
 21 23 0 0 0
SMALL
GASTEIGER

@<TRIPOS>ATOM
      1 C         140.6661  139.8434  165.8879 C.ar    1  UNL1        0.0266
      2 C         141.1218  138.4734  165.4814 C.ar    1  UNL1        0.0994
      3 N         140.5293  137.8144  164.2712 N.ar    1  UNL1       -0.2423
      4 C         139.4812  138.5254  163.4675 C.ar    1  UNL1        0.0985
      5 C         138.7212  138.1305  162.2360 C.ar    1  UNL1        0.0392
      6 C         137.7958  139.2566  161.8814 C.ar    1  UNL1        0.0779
      7 N         137.9839  140.3474  162.8938 N.ar    1  UNL1       -0.3165
      8 C         139.0255  139.8955  163.8740 C.ar    1  UNL1        0.0782
      9 C         139.6180  140.5545  165.0842 C.ar    1  UNL1        0.0208
     10 C         141.5303  143.2332  169.8431 C.3     1  UNL1        0.0316
     11 C         141.6558  142.0606  168.9162 C.ar    1  UNL1       -0.0149
     12 C         142.6847  140.9727  169.0049 C.ar    1  UNL1        0.0312
     13 S         142.4392  140.0098  167.8813 S.2     1  UNL1       -0.0867
     14 C         141.2586  140.5025  167.0982 C.ar    1  UNL1        0.0307
     15 C         140.7744  141.7700  167.7378 C.ar    1  UNL1        0.0028
     16 C         137.2579  141.6596  162.9212 C.3     1  UNL1        0.1920
     17 C         137.8906  142.8795  162.3199 C.2     1  UNL1        0.2488
     18 O         138.0874  142.9681  160.8355 O.2     1  UNL1       -0.2728
     19 N         138.3266  144.0109  163.2031 N.am    1  UNL1       -0.2744
     20 C         138.9594  145.2308  162.6018 C.3     1  UNL1        0.1150
     21 C         138.1299  143.9224  164.6874 C.3     1  UNL1        0.1150
@<TRIPOS>BOND
     1    10    11    1
     2    11    12   ar
     3    12    13   ar
     4    13    14   ar
     5    14     1    1
     6     1     2   ar
     7     2     3   ar
     8     3     4   ar
     9     4     5   ar
    10     5     6   ar
    11     6     7   ar
    12     7    16    1
    13    16    17    1
    14    17    18    2
    15    17    19   am
    16    19    20    1
    17    19    21    1
    18     7     8   ar
    19     8     9   ar
    20    14    15   ar
    21    15    11   ar
    22     9     1   ar
    23     8     4   ar
@<TRIPOS>MOLECULE
*****
 21 23 0 0 0
SMALL
GASTEIGER

@<TRIPOS>ATOM
      1 C         139.3515  142.5183  164.1597 C.ar    1  UNL1        0.0266
      2 C         138.2946  143.5772  164.0510 C.ar    1  UNL1        0.0994
      3 N         138.4140  144.6519  163.0115 N.ar    1  UNL1       -0.2423
      4 C         139.5902  144.6679  162.0808 C.ar    1  UNL1        0.0985
      5 C         139.9750  145.5941  160.9653 C.ar    1  UNL1        0.0392
      6 C         141.2696  145.1076  160.3847 C.ar    1  UNL1        0.0779
      7 N         141.6850  143.8808  161.1413 N.ar    1  UNL1       -0.3165
      8 C         140.6471  143.6091  162.1895 C.ar    1  UNL1        0.0782
      9 C         140.5277  142.5343  163.2290 C.ar    1  UNL1        0.0208
     10 C         137.7260  138.2448  166.8011 C.3     1  UNL1        0.0316
     11 C         138.4850  139.4792  166.4133 C.ar    1  UNL1       -0.0149
     12 C         139.6122  140.0998  167.1844 C.ar    1  UNL1        0.0312
     13 S         140.0739  141.3138  166.4340 S.2     1  UNL1       -0.0867
     14 C         139.2322  141.4435  165.1992 C.ar    1  UNL1        0.0307
     15 C         138.2502  140.3096  165.1864 C.ar    1  UNL1        0.0028
     16 C         142.9213  143.0684  160.8932 C.3     1  UNL1        0.1920
     17 C         144.0397  143.0804  161.8927 C.2     1  UNL1        0.2488
     18 O         144.5395  144.3831  162.4434 O.2     1  UNL1       -0.2728
     19 N         144.6585  141.7898  162.3414 N.am    1  UNL1       -0.2744
     20 C         145.7770  141.8018  163.3409 C.3     1  UNL1        0.1150
     21 C         144.1588  140.4871  161.7908 C.3     1  UNL1        0.1150
@<TRIPOS>BOND
     1    10    11    1
     2    11    12   ar
     3    12    13   ar
     4    13    14   ar
     5    14     1    1
     6     1     2   ar
     7     2     3   ar
     8     3     4   ar
     9     4     5   ar
    10     5     6   ar
    11     6     7   ar
    12     7    16    1
    13    16    17    1
    14    17    18    2
    15    17    19   am
    16    19    20    1
    17    19    21    1
    18     7     8   ar
    19     8     9   ar
    20    14    15   ar
    21    15    11   ar
    22     9     1   ar
    23     8     4   ar
@<TRIPOS>MOLECULE
*****
 21 23 0 0 0
SMALL
GASTEIGER

@<TRIPOS>ATOM
      1 C         141.6705  140.1461  166.9768 C.ar    1  UNL1        0.0266
      2 C         142.8214  139.2049  166.7782 C.ar    1  UNL1        0.0994
      3 N         142.7733  138.1823  165.6820 N.ar    1  UNL1       -0.2423
      4 C         141.5744  138.1009  164.7842 C.ar    1  UNL1        0.0985
      5 C         141.2454  137.2037  163.6279 C.ar    1  UNL1        0.0392
      6 C         139.8911  137.5905  163.1119 C.ar    1  UNL1        0.0779
      7 N         139.3832  138.7267  163.9493 N.ar    1  UNL1       -0.3165
      8 C         140.4235  139.0421  164.9828 C.ar    1  UNL1        0.0782
      9 C         140.4715  140.0647  166.0791 C.ar    1  UNL1        0.0208
     10 C         140.4600  144.2458  170.0766 C.3     1  UNL1        0.0316
     11 C         141.1621  143.0532  169.4979 C.ar    1  UNL1       -0.0149
     12 C         142.4227  142.4319  170.0224 C.ar    1  UNL1        0.0312
     13 S         142.7665  141.2673  169.1418 S.2     1  UNL1       -0.0867
     14 C         141.7185  141.1689  168.0731 C.ar    1  UNL1        0.0307
     15 C         140.7269  142.2726  168.2932 C.ar    1  UNL1        0.0028
     16 C         138.0661  139.4249  163.7824 C.3     1  UNL1        0.1920
     17 C         138.0292  140.8823  163.4294 C.2     1  UNL1        0.2488
     18 O         137.9736  141.9158  164.5151 O.2     1  UNL1       -0.2728
     19 N         138.0481  141.3062  161.9907 N.am    1  UNL1       -0.2744
     20 C         138.0112  142.7637  161.6377 C.3     1  UNL1        0.1150
     21 C         138.1038  140.2728  160.9049 C.3     1  UNL1        0.1150
@<TRIPOS>BOND
     1    10    11    1
     2    11    12   ar
     3    12    13   ar
     4    13    14   ar
     5    14     1    1
     6     1     2   ar
     7     2     3   ar
     8     3     4   ar
     9     4     5   ar
    10     5     6   ar
    11     6     7   ar
    12     7    16    1
    13    16    17    1
    14    17    18    2
    15    17    19   am
    16    19    20    1
    17    19    21    1
    18     7     8   ar
    19     8     9   ar
    20    14    15   ar
    21    15    11   ar
    22     9     1   ar
    23     8     4   ar
@<TRIPOS>MOLECULE
*****
 21 23 0 0 0
SMALL
GASTEIGER

@<TRIPOS>ATOM
      1 C         139.3578  140.4213  166.2050 C.ar    1  UNL1        0.0266
      2 C         139.3957  138.9536  165.8979 C.ar    1  UNL1        0.0994
      3 N         138.9501  138.4567  164.5546 N.ar    1  UNL1       -0.2423
      4 C         138.4665  139.4276  163.5185 C.ar    1  UNL1        0.0985
      5 C         137.9680  139.2342  162.1169 C.ar    1  UNL1        0.0392
      6 C         137.6220  140.5825  161.5579 C.ar    1  UNL1        0.0779
      7 N         137.9067  141.6090  162.6140 N.ar    1  UNL1       -0.3165
      8 C         138.4286  140.8953  163.8256 C.ar    1  UNL1        0.0782
      9 C         138.8743  141.3921  165.1689 C.ar    1  UNL1        0.0208
     10 C         141.5555  143.3730  169.9917 C.3     1  UNL1        0.0316
     11 C         140.8137  142.2749  169.2889 C.ar    1  UNL1       -0.0149
     12 C         140.1649  141.0906  169.9422 C.ar    1  UNL1        0.0312
     13 S         139.5407  140.2522  168.8665 S.2     1  UNL1       -0.0867
     14 C         139.8035  140.9182  167.5484 C.ar    1  UNL1        0.0307
     15 C         140.5903  142.1683  167.8095 C.ar    1  UNL1        0.0028
     16 C         137.7048  143.0895  162.4816 C.3     1  UNL1        0.1920
     17 C         138.8658  144.0232  162.6557 C.2     1  UNL1        0.2488
     18 O         139.0457  144.7635  163.9478 O.2     1  UNL1       -0.2728
     19 N         139.8469  144.2167  161.5376 N.am    1  UNL1       -0.2744
     20 C         141.0078  145.1505  161.7117 C.3     1  UNL1        0.1150
     21 C         139.6670  143.4766  160.2455 C.3     1  UNL1        0.1150
@<TRIPOS>BOND
     1    10    11    1
     2    11    12   ar
     3    12    13   ar
     4    13    14   ar
     5    14     1    1
     6     1     2   ar
     7     2     3   ar
     8     3     4   ar
     9     4     5   ar
    10     5     6   ar
    11     6     7   ar
    12     7    16    1
    13    16    17    1
    14    17    18    2
    15    17    19   am
    16    19    20    1
    17    19    21    1
    18     7     8   ar
    19     8     9   ar
    20    14    15   ar
    21    15    11   ar
    22     9     1   ar
    23     8     4   ar
@<TRIPOS>MOLECULE
*****
 21 23 0 0 0
SMALL
GASTEIGER

@<TRIPOS>ATOM
      1 C         142.2134  141.1900  166.3305 C.ar    1  UNL1        0.0266
      2 C         143.3087  142.1960  166.1351 C.ar    1  UNL1        0.0994
      3 N         144.2070  142.1035  164.9374 N.ar    1  UNL1       -0.2423
      4 C         144.0101  141.0050  163.9352 C.ar    1  UNL1        0.0985
      5 C         144.7337  140.6619  162.6668 C.ar    1  UNL1        0.0392
      6 C         144.0856  139.4439  162.0784 C.ar    1  UNL1        0.0779
      7 N         142.9615  139.0341  162.9831 N.ar    1  UNL1       -0.3165
      8 C         142.9148  139.9990  164.1307 C.ar    1  UNL1        0.0782
      9 C         142.0165  140.0915  165.3283 C.ar    1  UNL1        0.0208
     10 C         139.7737  142.9974  170.6505 C.3     1  UNL1        0.0316
     11 C         140.1936  142.1132  169.5139 C.ar    1  UNL1       -0.0149
     12 C         139.6716  140.7362  169.2286 C.ar    1  UNL1        0.0312
     13 S         140.3647  140.2228  168.0014 S.2     1  UNL1       -0.0867
     14 C         141.3151  141.2825  167.5283 C.ar    1  UNL1        0.0307
     15 C         141.2093  142.4508  168.4630 C.ar    1  UNL1        0.0028
     16 C         142.0449  137.8649  162.7765 C.3     1  UNL1        0.1920
     17 C         140.7663  138.0400  162.0121 C.2     1  UNL1        0.2488
     18 O         140.8049  138.2948  160.5344 O.2     1  UNL1       -0.2728
     19 N         139.4491  137.9605  162.7253 N.am    1  UNL1       -0.2744
     20 C         138.1705  138.1356  161.9608 C.3     1  UNL1        0.1150
     21 C         139.4105  137.7057  164.2029 C.3     1  UNL1        0.1150
@<TRIPOS>BOND
     1    10    11    1
     2    11    12   ar
     3    12    13   ar
     4    13    14   ar
     5    14     1    1
     6     1     2   ar
     7     2     3   ar
     8     3     4   ar
     9     4     5   ar
    10     5     6   ar
    11     6     7   ar
    12     7    16    1
    13    16    17    1
    14    17    18    2
    15    17    19   am
    16    19    20    1
    17    19    21    1
    18     7     8   ar
    19     8     9   ar
    20    14    15   ar
    21    15    11   ar
    22     9     1   ar
    23     8     4   ar
