@<TRIPOS>MOLECULE
*****
 35 38 0 0 0
SMALL
GASTEIGER

@<TRIPOS>ATOM
      1 C         139.0368  139.5473  158.7538 C.2     1  UNL1        0.2494
      2 O         138.0756  140.3818  157.9602 O.2     1  UNL1       -0.2699
      3 N         139.0020  139.5849  160.2529 N.am    1  UNL1       -0.2660
      4 C         139.9633  138.7504  161.0465 C.3     1  UNL1        0.1160
      5 C         139.9285  138.7879  162.5456 C.3     1  UNL1        0.1197
      6 N         138.9325  139.6599  163.2511 N.am    1  UNL1       -0.2555
      7 C         137.9713  140.4943  162.4576 C.2     1  UNL1        0.2497
      8 O         136.9754  141.3662  163.1631 O.2     1  UNL1       -0.2727
      9 C         138.0061  140.4568  160.9584 C.3     1  UNL1        0.1799
     10 C         142.0247  136.9315  156.6372 C.ar    1  UNL1        0.1057
     11 C         142.4868  137.9062  157.6795 C.ar    1  UNL1        0.0185
     12 C         141.4908  138.7781  158.3850 C.ar    1  UNL1        0.0058
     13 C         140.0328  138.6754  158.0482 C.ar    1  UNL1        0.0537
     14 C         139.5707  137.7008  157.0059 C.ar    1  UNL1        0.0058
     15 C         140.5666  136.8288  156.3004 C.ar    1  UNL1        0.0185
     16 C         144.0166  135.1876  155.2261 C.3     1  UNL1        0.1816
     17 S         143.0206  136.0596  155.9316 S.O2    1  UNL1        0.0104
     18 O         141.9883  134.9780  155.8109 O.2     1  UNL1       -0.1686
     19 O         144.0530  137.1411  156.0523 O.2     1  UNL1       -0.1686
     20 C         138.8978  139.6974  164.7503 C.ar    1  UNL1        0.0541
     21 C         139.6043  140.7947  165.4897 C.ar    1  UNL1        0.0180
     22 C         139.5696  140.8321  166.9888 C.ar    1  UNL1        0.0382
     23 C         138.8283  139.7723  167.7485 C.ar    1  UNL1        0.1386
     24 C         138.1217  138.6750  167.0092 C.ar    1  UNL1        0.0382
     25 C         138.1565  138.6375  165.5101 C.ar    1  UNL1        0.0180
     26 O         138.7936  139.8098  169.2477 O.3     1  UNL1       -0.4754
     27 C         139.7070  140.7347  169.9961 C.3     1  UNL1        0.2068
     28 C         141.0428  140.2462  170.4724 C.3     1  UNL1        0.0646
     29 C         142.3009  140.8737  169.9492 C.3     1  UNL1        0.0759
     30 N         142.6438  140.7649  168.4930 N.3     1  UNL1       -0.2726
     31 C         142.9211  142.0033  167.6931 C.3     1  UNL1        0.0721
     32 C         143.2640  141.8945  166.2370 C.3     1  UNL1        0.0174
     33 C         143.3297  140.5473  165.5805 C.3     1  UNL1        0.0029
     34 C         143.0525  139.3090  166.3803 C.3     1  UNL1        0.0174
     35 C         142.7095  139.4178  167.8365 C.3     1  UNL1        0.0721
@<TRIPOS>BOND
     1    16    17    1
     2    17    18    2
     3    17    19    2
     4    17    10    1
     5    10    11   ar
     6    11    12   ar
     7    12    13   ar
     8    13     1    1
     9     1     2    2
    10     1     3   am
    11     3     4    1
    12     4     5    1
    13     5     6    1
    14     6    20    1
    15    20    21   ar
    16    21    22   ar
    17    22    23   ar
    18    23    26    1
    19    26    27    1
    20    27    28    1
    21    28    29    1
    22    29    30    1
    23    30    31    1
    24    31    32    1
    25    32    33    1
    26    33    34    1
    27    34    35    1
    28    23    24   ar
    29    24    25   ar
    30     6     7   am
    31     7     8    2
    32     7     9    1
    33    13    14   ar
    34    14    15   ar
    35    15    10   ar
    36     9     3    1
    37    25    20   ar
    38    35    30    1
@<TRIPOS>MOLECULE
*****
 35 38 0 0 0
SMALL
GASTEIGER

@<TRIPOS>ATOM
      1 C         143.7392  137.0759  155.9924 C.2     1  UNL1        0.2494
      2 O         145.0317  137.5005  155.3607 O.2     1  UNL1       -0.2699
      3 N         142.9558  138.0481  156.8236 N.am    1  UNL1       -0.2660
      4 C         141.6632  137.6236  157.4554 C.3     1  UNL1        0.1160
      5 C         140.8798  138.5958  158.2866 C.3     1  UNL1        0.1197
      6 N         141.3888  139.9926  158.4861 N.am    1  UNL1       -0.2555
      7 C         142.6813  140.4172  157.8544 C.2     1  UNL1        0.2497
      8 O         143.1904  141.8140  158.0539 O.2     1  UNL1       -0.2727
      9 C         143.4648  139.4449  157.0231 C.3     1  UNL1        0.1799
     10 C         142.2119  132.8855  155.3938 C.ar    1  UNL1        0.1057
     11 C         141.9754  133.9275  154.3412 C.ar    1  UNL1        0.0185
     12 C         142.4844  135.3243  154.5407 C.ar    1  UNL1        0.0058
     13 C         143.2301  135.6791  155.7929 C.ar    1  UNL1        0.0537
     14 C         143.4667  134.6371  156.8456 C.ar    1  UNL1        0.0058
     15 C         142.9576  133.2403  156.6460 C.ar    1  UNL1        0.0185
     16 C         141.1938  130.0919  154.9948 C.3     1  UNL1        0.1816
     17 S         141.7029  131.4887  155.1943 S.O2    1  UNL1        0.0104
     18 O         142.5274  131.0221  156.3573 O.2     1  UNL1       -0.1686
     19 O         140.8783  131.9554  154.0314 O.2     1  UNL1       -0.1686
     20 C         140.6053  140.9648  159.3174 C.ar    1  UNL1        0.0541
     21 C         141.1740  141.4774  160.6072 C.ar    1  UNL1        0.0180
     22 C         140.3905  142.4496  161.4385 C.ar    1  UNL1        0.0382
     23 C         139.0383  142.9092  160.9798 C.ar    1  UNL1        0.1386
     24 C         138.4696  142.3966  159.6900 C.ar    1  UNL1        0.0382
     25 C         139.2531  141.4244  158.8588 C.ar    1  UNL1        0.0180
     26 O         138.2548  143.8814  161.8111 O.3     1  UNL1       -0.4754
     27 C         137.8181  143.5031  163.1953 C.3     1  UNL1        0.2068
     28 C         137.2507  142.1393  163.4562 C.3     1  UNL1        0.0646
     29 C         138.0665  141.1150  164.1880 C.3     1  UNL1        0.0759
     30 N         138.7974  140.0520  163.4228 N.3     1  UNL1       -0.2726
     31 C         140.1677  139.6232  163.8571 C.3     1  UNL1        0.0721
     32 C         140.8986  138.5601  163.0918 C.3     1  UNL1        0.0174
     33 C         140.2593  137.9259  161.8922 C.3     1  UNL1        0.0029
     34 C         138.8892  138.3547  161.4579 C.3     1  UNL1        0.0174
     35 C         138.1582  139.4178  162.2231 C.3     1  UNL1        0.0721
@<TRIPOS>BOND
     1    16    17    1
     2    17    18    2
     3    17    19    2
     4    17    10    1
     5    10    11   ar
     6    11    12   ar
     7    12    13   ar
     8    13     1    1
     9     1     2    2
    10     1     3   am
    11     3     4    1
    12     4     5    1
    13     5     6    1
    14     6    20    1
    15    20    21   ar
    16    21    22   ar
    17    22    23   ar
    18    23    26    1
    19    26    27    1
    20    27    28    1
    21    28    29    1
    22    29    30    1
    23    30    31    1
    24    31    32    1
    25    32    33    1
    26    33    34    1
    27    34    35    1
    28    23    24   ar
    29    24    25   ar
    30     6     7   am
    31     7     8    2
    32     7     9    1
    33    13    14   ar
    34    14    15   ar
    35    15    10   ar
    36     9     3    1
    37    25    20   ar
    38    35    30    1
@<TRIPOS>MOLECULE
*****
 35 38 0 0 0
SMALL
GASTEIGER

@<TRIPOS>ATOM
      1 C         143.7245  137.1272  156.0123 C.2     1  UNL1        0.2494
      2 O         145.0013  137.5816  155.3697 O.2     1  UNL1       -0.2699
      3 N         142.9210  138.0837  156.8426 N.am    1  UNL1       -0.2660
      4 C         141.6440  137.6292  157.4853 C.3     1  UNL1        0.1160
      5 C         140.8405  138.5857  158.3156 C.3     1  UNL1        0.1197
      6 N         141.3138  139.9967  158.5032 N.am    1  UNL1       -0.2555
      7 C         142.5907  140.4511  157.8606 C.2     1  UNL1        0.2497
      8 O         143.0641  141.8620  158.0483 O.2     1  UNL1       -0.2727
      9 C         143.3943  139.4946  157.0303 C.3     1  UNL1        0.1799
     10 C         142.3044  132.8944  155.4493 C.ar    1  UNL1        0.1057
     11 C         143.0010  133.2893  156.7176 C.ar    1  UNL1        0.0185
     12 C         143.4744  134.7002  156.9053 C.ar    1  UNL1        0.0058
     13 C         143.2511  135.7162  155.8247 C.ar    1  UNL1        0.0537
     14 C         142.5544  135.3213  154.5564 C.ar    1  UNL1        0.0058
     15 C         142.0810  133.9104  154.3687 C.ar    1  UNL1        0.0185
     16 C         141.3576  130.0725  155.0740 C.3     1  UNL1        0.1816
     17 S         141.8310  131.4835  155.2617 S.O2    1  UNL1        0.0104
     18 O         141.0446  131.9075  154.0568 O.2     1  UNL1       -0.1686
     19 O         142.6174  131.0594  156.4666 O.2     1  UNL1       -0.1686
     20 C         140.5102  140.9532  159.3336 C.ar    1  UNL1        0.0541
     21 C         139.2796  141.5921  158.7615 C.ar    1  UNL1        0.0180
     22 C         138.4761  142.5486  159.5918 C.ar    1  UNL1        0.0382
     23 C         138.9032  142.8661  160.9942 C.ar    1  UNL1        0.1386
     24 C         140.1338  142.2272  161.5663 C.ar    1  UNL1        0.0382
     25 C         140.9373  141.2707  160.7360 C.ar    1  UNL1        0.0180
     26 O         138.0996  143.8226  161.8246 O.3     1  UNL1       -0.4754
     27 C         137.7250  143.4626  163.2317 C.3     1  UNL1        0.2068
     28 C         138.3204  144.2178  164.3828 C.3     1  UNL1        0.0646
     29 C         139.4106  143.5958  165.2044 C.3     1  UNL1        0.0759
     30 N         140.8455  143.7764  164.8065 N.3     1  UNL1       -0.2726
     31 C         141.8774  142.7816  165.2489 C.3     1  UNL1        0.0721
     32 C         143.3123  142.9622  164.8510 C.3     1  UNL1        0.0174
     33 C         143.7154  144.1375  164.0107 C.3     1  UNL1        0.0029
     34 C         142.6836  145.1323  163.5683 C.3     1  UNL1        0.0174
     35 C         141.2486  144.9517  163.9662 C.3     1  UNL1        0.0721
@<TRIPOS>BOND
     1    16    17    1
     2    17    18    2
     3    17    19    2
     4    17    10    1
     5    10    11   ar
     6    11    12   ar
     7    12    13   ar
     8    13     1    1
     9     1     2    2
    10     1     3   am
    11     3     4    1
    12     4     5    1
    13     5     6    1
    14     6    20    1
    15    20    21   ar
    16    21    22   ar
    17    22    23   ar
    18    23    26    1
    19    26    27    1
    20    27    28    1
    21    28    29    1
    22    29    30    1
    23    30    31    1
    24    31    32    1
    25    32    33    1
    26    33    34    1
    27    34    35    1
    28    23    24   ar
    29    24    25   ar
    30     6     7   am
    31     7     8    2
    32     7     9    1
    33    13    14   ar
    34    14    15   ar
    35    15    10   ar
    36     9     3    1
    37    25    20   ar
    38    35    30    1
@<TRIPOS>MOLECULE
*****
 35 38 0 0 0
SMALL
GASTEIGER

@<TRIPOS>ATOM
      1 C         143.7679  137.4338  156.0886 C.2     1  UNL1        0.2494
      2 O         145.0835  138.0233  155.6742 O.2     1  UNL1       -0.2699
      3 N         142.8587  138.1982  157.0044 N.am    1  UNL1       -0.2660
      4 C         141.5431  137.6087  157.4188 C.3     1  UNL1        0.1160
      5 C         140.6338  138.3731  158.3347 C.3     1  UNL1        0.1197
      6 N         141.0402  139.7272  158.8362 N.am    1  UNL1       -0.2555
      7 C         142.3557  140.3167  158.4218 C.2     1  UNL1        0.2497
      8 O         142.7620  141.6707  158.9234 O.2     1  UNL1       -0.2727
      9 C         143.2650  139.5522  157.5059 C.3     1  UNL1        0.1799
     10 C         142.5490  133.3717  154.5840 C.ar    1  UNL1        0.1057
     11 C         142.1889  134.6001  153.8023 C.ar    1  UNL1        0.0185
     12 C         142.5952  135.9542  154.3038 C.ar    1  UNL1        0.0058
     13 C         143.3616  136.0797  155.5871 C.ar    1  UNL1        0.0537
     14 C         143.7217  134.8513  156.3688 C.ar    1  UNL1        0.0058
     15 C         143.3154  133.4972  155.8673 C.ar    1  UNL1        0.0185
     16 C         141.7364  130.6636  153.5810 C.3     1  UNL1        0.1816
     17 S         142.1427  132.0176  154.0825 S.O2    1  UNL1        0.0104
     18 O         141.9227  131.5608  155.4942 O.2     1  UNL1       -0.1686
     19 O         142.3627  132.4745  152.6708 O.2     1  UNL1       -0.1686
     20 C         140.1308  140.4916  159.7521 C.ar    1  UNL1        0.0541
     21 C         139.3327  141.6466  159.2240 C.ar    1  UNL1        0.0180
     22 C         138.4235  142.4110  160.1399 C.ar    1  UNL1        0.0382
     23 C         138.3123  142.0204  161.5839 C.ar    1  UNL1        0.1386
     24 C         139.1104  140.8654  162.1119 C.ar    1  UNL1        0.0382
     25 C         140.0197  140.1010  161.1961 C.ar    1  UNL1        0.0180
     26 O         137.4030  142.7849  162.4998 O.3     1  UNL1       -0.4754
     27 C         137.6973  142.8460  163.9693 C.3     1  UNL1        0.2068
     28 C         138.0032  144.1631  164.6187 C.3     1  UNL1        0.0646
     29 C         139.3713  144.7640  164.4879 C.3     1  UNL1        0.0759
     30 N         140.0864  144.7213  163.1701 N.3     1  UNL1       -0.2726
     31 C         141.2638  143.8104  162.9848 C.3     1  UNL1        0.0721
     32 C         141.9789  143.7677  161.6670 C.3     1  UNL1        0.0174
     33 C         141.5167  144.6357  160.5343 C.3     1  UNL1        0.0029
     34 C         140.3394  145.5465  160.7195 C.3     1  UNL1        0.0174
     35 C         139.6242  145.5893  162.0374 C.3     1  UNL1        0.0721
@<TRIPOS>BOND
     1    16    17    1
     2    17    18    2
     3    17    19    2
     4    17    10    1
     5    10    11   ar
     6    11    12   ar
     7    12    13   ar
     8    13     1    1
     9     1     2    2
    10     1     3   am
    11     3     4    1
    12     4     5    1
    13     5     6    1
    14     6    20    1
    15    20    21   ar
    16    21    22   ar
    17    22    23   ar
    18    23    26    1
    19    26    27    1
    20    27    28    1
    21    28    29    1
    22    29    30    1
    23    30    31    1
    24    31    32    1
    25    32    33    1
    26    33    34    1
    27    34    35    1
    28    23    24   ar
    29    24    25   ar
    30     6     7   am
    31     7     8    2
    32     7     9    1
    33    13    14   ar
    34    14    15   ar
    35    15    10   ar
    36     9     3    1
    37    25    20   ar
    38    35    30    1
@<TRIPOS>MOLECULE
*****
 35 38 0 0 0
SMALL
GASTEIGER

@<TRIPOS>ATOM
      1 C         143.2171  138.0896  156.2575 C.2     1  UNL1        0.2494
      2 O         143.6303  138.9984  155.1380 O.2     1  UNL1       -0.2699
      3 N         143.2070  138.5957  157.6695 N.am    1  UNL1       -0.2660
      4 C         142.7939  137.6868  158.7891 C.3     1  UNL1        0.1160
      5 C         142.7838  138.1929  160.2010 C.3     1  UNL1        0.1197
      6 N         143.1868  139.6079  160.4935 N.am    1  UNL1       -0.2555
      7 C         143.5999  140.5167  159.3740 C.2     1  UNL1        0.2497
      8 O         144.0029  141.9316  159.6665 O.2     1  UNL1       -0.2727
      9 C         143.6100  140.0106  157.9619 C.3     1  UNL1        0.1799
     10 C         142.0081  133.8448  155.3801 C.ar    1  UNL1        0.1057
     11 C         143.4095  134.1499  155.8192 C.ar    1  UNL1        0.0185
     12 C         143.8125  135.5649  156.1117 C.ar    1  UNL1        0.0058
     13 C         142.8141  136.6746  155.9650 C.ar    1  UNL1        0.0537
     14 C         141.4127  136.3695  155.5258 C.ar    1  UNL1        0.0058
     15 C         141.0097  134.9546  155.2334 C.ar    1  UNL1        0.0185
     16 C         141.2020  131.0149  154.7951 C.3     1  UNL1        0.1816
     17 S         141.6051  132.4298  155.0876 S.O2    1  UNL1        0.0104
     18 O         141.0799  132.8562  153.7488 O.2     1  UNL1       -0.1686
     19 O         142.1303  132.0035  156.4264 O.2     1  UNL1       -0.1686
     20 C         143.1767  140.1140  161.9056 C.ar    1  UNL1        0.0541
     21 C         144.2936  139.7533  162.8396 C.ar    1  UNL1        0.0180
     22 C         144.2834  140.2594  164.2515 C.ar    1  UNL1        0.0382
     23 C         143.1563  141.1261  164.7295 C.ar    1  UNL1        0.1386
     24 C         142.0394  141.4868  163.7955 C.ar    1  UNL1        0.0382
     25 C         142.0496  140.9807  162.3835 C.ar    1  UNL1        0.0180
     26 O         143.1462  141.6322  166.1416 O.3     1  UNL1       -0.4754
     27 C         141.9245  141.4541  166.9934 C.3     1  UNL1        0.2068
     28 C         141.4145  140.0759  167.2943 C.3     1  UNL1        0.0646
     29 C         140.1112  139.6148  166.7120 C.3     1  UNL1        0.0759
     30 N         140.0811  138.9693  165.3583 N.3     1  UNL1       -0.2726
     31 C         138.9504  139.2564  164.4154 C.3     1  UNL1        0.0721
     32 C         138.9203  138.6110  163.0618 C.3     1  UNL1        0.0174
     33 C         140.0210  137.6784  162.6509 C.3     1  UNL1        0.0029
     34 C         141.1517  137.3912  163.5938 C.3     1  UNL1        0.0174
     35 C         141.1818  138.0367  164.9475 C.3     1  UNL1        0.0721
@<TRIPOS>BOND
     1    16    17    1
     2    17    18    2
     3    17    19    2
     4    17    10    1
     5    10    11   ar
     6    11    12   ar
     7    12    13   ar
     8    13     1    1
     9     1     2    2
    10     1     3   am
    11     3     4    1
    12     4     5    1
    13     5     6    1
    14     6    20    1
    15    20    21   ar
    16    21    22   ar
    17    22    23   ar
    18    23    26    1
    19    26    27    1
    20    27    28    1
    21    28    29    1
    22    29    30    1
    23    30    31    1
    24    31    32    1
    25    32    33    1
    26    33    34    1
    27    34    35    1
    28    23    24   ar
    29    24    25   ar
    30     6     7   am
    31     7     8    2
    32     7     9    1
    33    13    14   ar
    34    14    15   ar
    35    15    10   ar
    36     9     3    1
    37    25    20   ar
    38    35    30    1
@<TRIPOS>MOLECULE
*****
 35 38 0 0 0
SMALL
GASTEIGER

@<TRIPOS>ATOM
      1 C         143.7389  137.1801  156.0460 C.2     1  UNL1        0.2494
      2 O         144.9770  137.6843  155.3658 O.2     1  UNL1       -0.2699
      3 N         142.9154  138.1083  156.8887 N.am    1  UNL1       -0.2660
      4 C         141.6772  137.6041  157.5690 C.3     1  UNL1        0.1160
      5 C         140.8537  138.5323  158.4117 C.3     1  UNL1        0.1197
      6 N         141.2683  139.9647  158.5742 N.am    1  UNL1       -0.2555
      7 C         142.5064  140.4689  157.8940 C.2     1  UNL1        0.2497
      8 O         142.9210  141.9013  158.0565 O.2     1  UNL1       -0.2727
      9 C         143.3300  139.5407  157.0512 C.3     1  UNL1        0.1799
     10 C         142.4951  132.8830  155.5586 C.ar    1  UNL1        0.1057
     11 C         142.2901  133.8552  154.4349 C.ar    1  UNL1        0.0185
     12 C         142.7047  135.2876  154.5974 C.ar    1  UNL1        0.0058
     13 C         143.3243  135.7478  155.8835 C.ar    1  UNL1        0.0537
     14 C         143.5293  134.7755  157.0072 C.ar    1  UNL1        0.0058
     15 C         143.1147  133.3432  156.8447 C.ar    1  UNL1        0.0185
     16 C         141.6659  130.0183  155.2336 C.3     1  UNL1        0.1816
     17 S         142.0805  131.4506  155.3961 S.O2    1  UNL1        0.0104
     18 O         143.4223  131.0054  155.8974 O.2     1  UNL1       -0.1686
     19 O         140.7387  131.8959  154.8947 O.2     1  UNL1       -0.1686
     20 C         140.4447  140.8929  159.4170 C.ar    1  UNL1        0.0541
     21 C         139.2931  141.6363  158.8078 C.ar    1  UNL1        0.0180
     22 C         138.4695  142.5644  159.6506 C.ar    1  UNL1        0.0382
     23 C         138.7976  142.7492  161.1026 C.ar    1  UNL1        0.1386
     24 C         139.9492  142.0058  161.7118 C.ar    1  UNL1        0.0382
     25 C         140.7727  141.0777  160.8690 C.ar    1  UNL1        0.0180
     26 O         137.9740  143.6774  161.9453 O.3     1  UNL1       -0.4754
     27 C         138.6454  144.6095  162.9098 C.3     1  UNL1        0.2068
     28 C         138.5419  144.3637  164.3858 C.3     1  UNL1        0.0646
     29 C         139.6286  143.6157  165.0997 C.3     1  UNL1        0.0759
     30 N         139.3843  142.2163  165.5811 N.3     1  UNL1       -0.2726
     31 C         140.1210  141.6961  166.7798 C.3     1  UNL1        0.0721
     32 C         139.8767  140.2966  167.2612 C.3     1  UNL1        0.0174
     33 C         138.8958  139.4173  166.5440 C.3     1  UNL1        0.0029
     34 C         138.1591  139.9373  165.3453 C.3     1  UNL1        0.0174
     35 C         138.4034  141.3369  164.8638 C.3     1  UNL1        0.0721
@<TRIPOS>BOND
     1    16    17    1
     2    17    18    2
     3    17    19    2
     4    17    10    1
     5    10    11   ar
     6    11    12   ar
     7    12    13   ar
     8    13     1    1
     9     1     2    2
    10     1     3   am
    11     3     4    1
    12     4     5    1
    13     5     6    1
    14     6    20    1
    15    20    21   ar
    16    21    22   ar
    17    22    23   ar
    18    23    26    1
    19    26    27    1
    20    27    28    1
    21    28    29    1
    22    29    30    1
    23    30    31    1
    24    31    32    1
    25    32    33    1
    26    33    34    1
    27    34    35    1
    28    23    24   ar
    29    24    25   ar
    30     6     7   am
    31     7     8    2
    32     7     9    1
    33    13    14   ar
    34    14    15   ar
    35    15    10   ar
    36     9     3    1
    37    25    20   ar
    38    35    30    1
@<TRIPOS>MOLECULE
*****
 35 38 0 0 0
SMALL
GASTEIGER

@<TRIPOS>ATOM
      1 C         138.0044  140.9596  163.2602 C.2     1  UNL1        0.2494
      2 O         136.7504  141.7668  163.0998 O.2     1  UNL1       -0.2699
      3 N         138.6767  140.3711  162.0554 N.am    1  UNL1       -0.2660
      4 C         139.9308  139.5639  162.2157 C.3     1  UNL1        0.1160
      5 C         140.6032  138.9754  161.0109 C.3     1  UNL1        0.1197
      6 N         140.0215  139.1942  159.6457 N.am    1  UNL1       -0.2555
      7 C         138.7675  140.0014  159.4853 C.2     1  UNL1        0.2497
      8 O         138.1858  140.2202  158.1201 O.2     1  UNL1       -0.2727
      9 C         138.0951  140.5899  160.6902 C.3     1  UNL1        0.1799
     10 C         139.7494  140.3032  167.3558 C.ar    1  UNL1        0.1057
     11 C         140.1301  141.5192  166.5644 C.ar    1  UNL1        0.0185
     12 C         139.5485  141.7380  165.1992 C.ar    1  UNL1        0.0058
     13 C         138.5860  140.7408  164.6254 C.ar    1  UNL1        0.0537
     14 C         138.2053  139.5248  165.4168 C.ar    1  UNL1        0.0058
     15 C         138.7870  139.3060  166.7820 C.ar    1  UNL1        0.0185
     16 C         140.9127  139.8656  170.0862 C.3     1  UNL1        0.1816
     17 S         140.3311  140.0844  168.7210 S.O2    1  UNL1        0.0104
     18 O         141.6892  140.4523  168.2013 O.2     1  UNL1       -0.1686
     19 O         138.9729  139.7165  169.2407 O.2     1  UNL1       -0.1686
     20 C         140.6939  138.6057  158.4408 C.ar    1  UNL1        0.0541
     21 C         142.1232  138.9458  158.1387 C.ar    1  UNL1        0.0180
     22 C         142.7956  138.3574  156.9339 C.ar    1  UNL1        0.0382
     23 C         142.0386  137.4288  156.0312 C.ar    1  UNL1        0.1386
     24 C         140.6093  137.0886  156.3334 C.ar    1  UNL1        0.0382
     25 C         139.9370  137.6771  157.5382 C.ar    1  UNL1        0.0180
     26 O         142.7110  136.8403  154.8264 O.3     1  UNL1       -0.4754
     27 C         142.9580  135.3626  154.7522 C.3     1  UNL1        0.2068
     28 C         141.9091  134.4547  154.1816 C.3     1  UNL1        0.0646
     29 C         141.5495  133.1839  154.8928 C.3     1  UNL1        0.0759
     30 N         142.6308  132.2700  155.3882 N.3     1  UNL1       -0.2726
     31 C         143.3899  131.4121  154.4197 C.3     1  UNL1        0.0721
     32 C         144.4712  130.4982  154.9151 C.3     1  UNL1        0.0174
     33 C         144.7935  130.4420  156.3790 C.3     1  UNL1        0.0029
     34 C         144.0345  131.2997  157.3475 C.3     1  UNL1        0.0174
     35 C         142.9531  132.2138  156.8521 C.3     1  UNL1        0.0721
@<TRIPOS>BOND
     1    16    17    1
     2    17    18    2
     3    17    19    2
     4    17    10    1
     5    10    11   ar
     6    11    12   ar
     7    12    13   ar
     8    13     1    1
     9     1     2    2
    10     1     3   am
    11     3     4    1
    12     4     5    1
    13     5     6    1
    14     6    20    1
    15    20    21   ar
    16    21    22   ar
    17    22    23   ar
    18    23    26    1
    19    26    27    1
    20    27    28    1
    21    28    29    1
    22    29    30    1
    23    30    31    1
    24    31    32    1
    25    32    33    1
    26    33    34    1
    27    34    35    1
    28    23    24   ar
    29    24    25   ar
    30     6     7   am
    31     7     8    2
    32     7     9    1
    33    13    14   ar
    34    14    15   ar
    35    15    10   ar
    36     9     3    1
    37    25    20   ar
    38    35    30    1
@<TRIPOS>MOLECULE
*****
 35 38 0 0 0
SMALL
GASTEIGER

@<TRIPOS>ATOM
      1 C         144.2309  140.8183  163.2574 C.2     1  UNL1        0.2494
      2 O         145.4219  141.7192  163.1172 O.2     1  UNL1       -0.2699
      3 N         143.6453  140.1554  162.0460 N.am    1  UNL1       -0.2660
      4 C         142.4542  139.2544  162.1862 C.3     1  UNL1        0.1160
      5 C         141.8685  138.5915  160.9748 C.3     1  UNL1        0.1197
      6 N         142.4738  138.8296  159.6232 N.am    1  UNL1       -0.2555
      7 C         143.6648  139.7306  159.4830 C.2     1  UNL1        0.2497
      8 O         144.2701  139.9687  158.1313 O.2     1  UNL1       -0.2727
      9 C         144.2506  140.3935  160.6944 C.3     1  UNL1        0.1799
     10 C         142.4150  140.1040  167.3123 C.ar    1  UNL1        0.1057
     11 C         142.2431  141.4322  166.6370 C.ar    1  UNL1        0.0185
     12 C         142.8484  141.6703  165.2853 C.ar    1  UNL1        0.0058
     13 C         143.6256  140.5802  164.6090 C.ar    1  UNL1        0.0537
     14 C         143.7976  139.2519  165.2844 C.ar    1  UNL1        0.0058
     15 C         143.1923  139.0138  166.6360 C.ar    1  UNL1        0.0185
     16 C         141.2044  139.6278  170.0156 C.3     1  UNL1        0.1816
     17 S         141.8097  139.8659  168.6640 S.O2    1  UNL1        0.0104
     18 O         140.6066  140.6687  168.2666 O.2     1  UNL1       -0.1686
     19 O         143.0129  139.0631  169.0614 O.2     1  UNL1       -0.1686
     20 C         141.8880  138.1667  158.4118 C.ar    1  UNL1        0.0541
     21 C         142.7758  137.4137  157.4658 C.ar    1  UNL1        0.0180
     22 C         142.1901  136.7509  156.2545 C.ar    1  UNL1        0.0382
     23 C         140.7165  136.8409  155.9891 C.ar    1  UNL1        0.1386
     24 C         139.8287  137.5938  156.9350 C.ar    1  UNL1        0.0382
     25 C         140.4144  138.2567  158.1464 C.ar    1  UNL1        0.0180
     26 O         140.1307  136.1780  154.7777 O.3     1  UNL1       -0.4754
     27 C         141.0298  135.5112  153.7792 C.3     1  UNL1        0.2068
     28 C         141.3686  134.0576  153.9283 C.3     1  UNL1        0.0646
     29 C         141.3722  133.4240  155.2880 C.3     1  UNL1        0.0759
     30 N         142.6532  132.9039  155.8697 N.3     1  UNL1       -0.2726
     31 C         143.1933  133.4916  157.1398 C.3     1  UNL1        0.0721
     32 C         144.4743  132.9715  157.7215 C.3     1  UNL1        0.0174
     33 C         145.2154  131.8638  157.0331 C.3     1  UNL1        0.0029
     34 C         144.6753  131.2761  155.7631 C.3     1  UNL1        0.0174
     35 C         143.3942  131.7962  155.1814 C.3     1  UNL1        0.0721
@<TRIPOS>BOND
     1    16    17    1
     2    17    18    2
     3    17    19    2
     4    17    10    1
     5    10    11   ar
     6    11    12   ar
     7    12    13   ar
     8    13     1    1
     9     1     2    2
    10     1     3   am
    11     3     4    1
    12     4     5    1
    13     5     6    1
    14     6    20    1
    15    20    21   ar
    16    21    22   ar
    17    22    23   ar
    18    23    26    1
    19    26    27    1
    20    27    28    1
    21    28    29    1
    22    29    30    1
    23    30    31    1
    24    31    32    1
    25    32    33    1
    26    33    34    1
    27    34    35    1
    28    23    24   ar
    29    24    25   ar
    30     6     7   am
    31     7     8    2
    32     7     9    1
    33    13    14   ar
    34    14    15   ar
    35    15    10   ar
    36     9     3    1
    37    25    20   ar
    38    35    30    1
@<TRIPOS>MOLECULE
*****
 35 38 0 0 0
SMALL
GASTEIGER

@<TRIPOS>ATOM
      1 C         139.7190  139.8649  158.4909 C.2     1  UNL1        0.2494
      2 O         139.2759  138.6493  157.7320 O.2     1  UNL1       -0.2699
      3 N         140.2037  139.7314  159.9041 N.am    1  UNL1       -0.2660
      4 C         140.6469  140.9471  160.6630 C.3     1  UNL1        0.1160
      5 C         141.1316  140.8136  162.0762 C.3     1  UNL1        0.1197
      6 N         141.1731  139.4644  162.7306 N.am    1  UNL1       -0.2555
      7 C         140.7300  138.2488  161.9717 C.2     1  UNL1        0.2497
      8 O         140.7716  136.8997  162.6261 O.2     1  UNL1       -0.2727
      9 C         140.2453  138.3823  160.5584 C.3     1  UNL1        0.1799
     10 C         139.5943  143.9123  156.5278 C.ar    1  UNL1        0.1057
     11 C         140.8580  143.1046  156.5017 C.ar    1  UNL1        0.0185
     12 C         140.8996  141.7555  157.1560 C.ar    1  UNL1        0.0058
     13 C         139.6774  141.2140  157.8365 C.ar    1  UNL1        0.0537
     14 C         138.4137  142.0217  157.8627 C.ar    1  UNL1        0.0058
     15 C         138.3722  143.3708  157.2083 C.ar    1  UNL1        0.0185
     16 C         139.5112  146.6105  155.2191 C.3     1  UNL1        0.1816
     17 S         139.5528  145.2614  155.8735 S.O2    1  UNL1        0.0104
     18 O         138.1902  144.9542  155.3266 O.2     1  UNL1       -0.1686
     19 O         140.9153  145.5686  156.4203 O.2     1  UNL1       -0.1686
     20 C         141.6578  139.3310  164.1439 C.ar    1  UNL1        0.0541
     21 C         140.6817  139.3966  165.2809 C.ar    1  UNL1        0.0180
     22 C         141.1665  139.2632  166.6941 C.ar    1  UNL1        0.0382
     23 C         142.6273  139.0640  166.9703 C.ar    1  UNL1        0.1386
     24 C         143.6034  138.9984  165.8332 C.ar    1  UNL1        0.0382
     25 C         143.1187  139.1319  164.4201 C.ar    1  UNL1        0.0180
     26 O         143.1121  138.9306  168.3836 O.3     1  UNL1       -0.4754
     27 C         142.4915  139.7573  169.4705 C.3     1  UNL1        0.2068
     28 C         143.1817  140.9972  169.9564 C.3     1  UNL1        0.0646
     29 C         142.7023  142.3465  169.5095 C.3     1  UNL1        0.0759
     30 N         142.2109  142.5408  168.1057 N.3     1  UNL1       -0.2726
     31 C         143.1786  142.5028  166.9602 C.3     1  UNL1        0.0721
     32 C         142.6872  142.6970  165.5564 C.3     1  UNL1        0.0174
     33 C         141.2279  142.9293  165.2980 C.3     1  UNL1        0.0029
     34 C         140.2602  142.9673  166.4434 C.3     1  UNL1        0.0174
     35 C         140.7517  142.7730  167.8473 C.3     1  UNL1        0.0721
@<TRIPOS>BOND
     1    16    17    1
     2    17    18    2
     3    17    19    2
     4    17    10    1
     5    10    11   ar
     6    11    12   ar
     7    12    13   ar
     8    13     1    1
     9     1     2    2
    10     1     3   am
    11     3     4    1
    12     4     5    1
    13     5     6    1
    14     6    20    1
    15    20    21   ar
    16    21    22   ar
    17    22    23   ar
    18    23    26    1
    19    26    27    1
    20    27    28    1
    21    28    29    1
    22    29    30    1
    23    30    31    1
    24    31    32    1
    25    32    33    1
    26    33    34    1
    27    34    35    1
    28    23    24   ar
    29    24    25   ar
    30     6     7   am
    31     7     8    2
    32     7     9    1
    33    13    14   ar
    34    14    15   ar
    35    15    10   ar
    36     9     3    1
    37    25    20   ar
    38    35    30    1
