@<TRIPOS>MOLECULE
*****
 31 35 0 0 0
SMALL
GASTEIGER

@<TRIPOS>ATOM
      1 C         140.8241  142.7408  169.6976 C.2     1  UNL1        0.4056
      2 O         139.9930  143.9861  169.7903 O.2     1  UNL1       -0.2262
      3 N         141.1566  142.1592  168.3556 N.am    1  UNL1       -0.2345
      4 C         140.6094  142.8999  167.1715 C.3     1  UNL1        0.1254
      5 C         140.7628  142.5782  165.7144 C.ar    1  UNL1        0.0148
      6 C         140.0534  143.5814  164.8541 C.ar    1  UNL1        0.0102
      7 C         140.0826  143.4427  163.3608 C.ar    1  UNL1        0.0575
      8 CL        139.3731  144.4459  162.5004 Cl      1  UNL1       -0.0823
      9 C         140.8212  142.3008  162.7279 C.ar    1  UNL1        0.0129
     10 C         141.5306  141.2976  163.5883 C.ar    1  UNL1        0.0182
     11 C         141.5014  141.4363  165.0816 C.ar    1  UNL1        0.0639
     12 N         142.2690  140.3341  165.7495 N.ar    1  UNL1       -0.2796
     13 C         142.4876  140.1015  167.2151 C.ar    1  UNL1        0.1673
     14 N         143.3230  138.8654  167.3688 N.ar    1  UNL1       -0.1315
     15 N         143.6208  138.3338  165.9981 N.ar    1  UNL1       -0.1333
     16 C         142.9694  139.2416  164.9972 C.ar    1  UNL1        0.1465
     17 C         141.9925  140.9138  168.3749 C.3     1  UNL1        0.1632
     18 C         143.0111  139.0844  163.5062 C.3     1  UNL1        0.0625
     19 C         144.0689  139.7864  162.7072 C.3     1  UNL1        0.0291
     20 C         144.1105  139.6292  161.2161 C.3     1  UNL1        0.0926
     21 N         143.0944  138.7700  160.5238 N.pl3   1  UNL1       -0.2932
     22 C         142.0366  138.0680  161.3227 C.3     1  UNL1        0.0926
     23 C         141.9949  138.2251  162.8138 C.3     1  UNL1        0.0291
     24 C         143.1361  138.6128  159.0326 C.ar    1  UNL1        0.1317
     25 C         142.6019  137.3646  158.3949 C.ar    1  UNL1        0.0343
     26 C         142.6436  137.2073  156.9037 C.ar    1  UNL1        0.0045
     27 C         143.2194  138.2983  156.0503 C.ar    1  UNL1        0.0208
     28 C         143.7535  139.5465  156.6880 C.ar    1  UNL1        0.1003
     29 N         143.7118  139.7037  158.1793 N.ar    1  UNL1       -0.2292
     30 C         140.6724  140.8174  171.4376 C.3     1  UNL1        0.2573
     31 O         141.3225  142.0770  170.9470 O.3     1  UNL1       -0.4304
@<TRIPOS>BOND
     1    30    31    1
     2    31     1    1
     3     1     2    2
     4     1     3   am
     5     3     4    1
     6     4     5    1
     7     5     6   ar
     8     6     7   ar
     9     7     8    1
    10     7     9   ar
    11     9    10   ar
    12    10    11   ar
    13    11    12    1
    14    12    13   ar
    15    13    14   ar
    16    14    15   ar
    17    15    16   ar
    18    16    18    1
    19    18    19    1
    20    19    20    1
    21    20    21    1
    22    21    24    1
    23    24    25   ar
    24    25    26   ar
    25    26    27   ar
    26    27    28   ar
    27    28    29   ar
    28    21    22    1
    29    22    23    1
    30    13    17    1
    31    17     3    1
    32    11     5   ar
    33    16    12   ar
    34    23    18    1
    35    29    24   ar
@<TRIPOS>MOLECULE
*****
 31 35 0 0 0
SMALL
GASTEIGER

@<TRIPOS>ATOM
      1 C         137.7647  141.6124  157.6065 C.2     1  UNL1        0.4056
      2 O         137.9986  142.9525  156.9745 O.2     1  UNL1       -0.2262
      3 N         138.1798  141.3705  159.0274 N.am    1  UNL1       -0.2345
      4 C         138.8192  142.5340  159.7257 C.3     1  UNL1        0.1254
      5 C         139.3373  142.6115  161.1313 C.ar    1  UNL1        0.0148
      6 C         139.9032  143.9675  161.4327 C.ar    1  UNL1        0.0102
      7 C         140.4758  144.2567  162.7886 C.ar    1  UNL1        0.0575
      8 CL        141.0418  145.6127  163.0902 Cl      1  UNL1       -0.0823
      9 C         140.4825  143.1898  163.8430 C.ar    1  UNL1        0.0129
     10 C         139.9166  141.8338  163.5416 C.ar    1  UNL1        0.0182
     11 C         139.3440  141.5446  162.1857 C.ar    1  UNL1        0.0639
     12 N         138.8342  140.1368  162.0949 N.ar    1  UNL1       -0.2796
     13 C         138.1919  139.4481  160.9275 C.ar    1  UNL1        0.1673
     14 N         137.8605  138.0452  161.3418 N.ar    1  UNL1       -0.1315
     15 N         138.2980  137.8667  162.7654 N.ar    1  UNL1       -0.1333
     16 C         138.8998  139.1594  163.2309 C.ar    1  UNL1        0.1465
     17 C         137.9006  139.9972  159.5623 C.3     1  UNL1        0.1632
     18 C         139.4675  139.4276  164.5931 C.3     1  UNL1        0.0625
     19 C         140.9410  139.2820  164.8337 C.3     1  UNL1        0.0291
     20 C         141.5087  139.5502  166.1959 C.3     1  UNL1        0.0926
     21 N         140.6030  139.9641  167.3177 N.pl3   1  UNL1       -0.2932
     22 C         139.1296  140.1098  167.0772 C.3     1  UNL1        0.0926
     23 C         138.5618  139.8415  165.7150 C.3     1  UNL1        0.0291
     24 C         141.1707  140.2324  168.6800 C.ar    1  UNL1        0.1317
     25 C         142.4105  139.5178  169.1298 C.ar    1  UNL1        0.0343
     26 C         142.9783  139.7861  170.4921 C.ar    1  UNL1        0.0045
     27 C         142.3061  140.7688  171.4044 C.ar    1  UNL1        0.0208
     28 C         141.0663  141.4834  170.9546 C.ar    1  UNL1        0.1003
     29 N         140.4986  141.2151  169.5923 N.ar    1  UNL1       -0.2292
     30 C         135.8143  140.7638  156.1146 C.3     1  UNL1        0.2573
     31 O         137.1157  140.5141  156.8174 O.3     1  UNL1       -0.4304
@<TRIPOS>BOND
     1    30    31    1
     2    31     1    1
     3     1     2    2
     4     1     3   am
     5     3     4    1
     6     4     5    1
     7     5     6   ar
     8     6     7   ar
     9     7     8    1
    10     7     9   ar
    11     9    10   ar
    12    10    11   ar
    13    11    12    1
    14    12    13   ar
    15    13    14   ar
    16    14    15   ar
    17    15    16   ar
    18    16    18    1
    19    18    19    1
    20    19    20    1
    21    20    21    1
    22    21    24    1
    23    24    25   ar
    24    25    26   ar
    25    26    27   ar
    26    27    28   ar
    27    28    29   ar
    28    21    22    1
    29    22    23    1
    30    13    17    1
    31    17     3    1
    32    11     5   ar
    33    16    12   ar
    34    23    18    1
    35    29    24   ar
@<TRIPOS>MOLECULE
*****
 31 35 0 0 0
SMALL
GASTEIGER

@<TRIPOS>ATOM
      1 C         142.4371  138.3638  157.4366 C.2     1  UNL1        0.4056
      2 O         143.7968  138.6752  156.8852 O.2     1  UNL1       -0.2262
      3 N         142.0967  138.7376  158.8487 N.am    1  UNL1       -0.2345
      4 C         143.1866  139.4182  159.6226 C.3     1  UNL1        0.1254
      5 C         143.1605  139.9108  161.0392 C.ar    1  UNL1        0.0148
      6 C         144.4681  140.5354  161.4264 C.ar    1  UNL1        0.0102
      7 C         144.6531  141.0936  162.8063 C.ar    1  UNL1        0.0575
      8 CL        145.9607  141.7184  163.1936 Cl      1  UNL1       -0.0823
      9 C         143.5305  141.0271  163.7990 C.ar    1  UNL1        0.0129
     10 C         142.2230  140.4024  163.4118 C.ar    1  UNL1        0.0182
     11 C         142.0380  139.8442  162.0319 C.ar    1  UNL1        0.0639
     12 N         140.6643  139.2688  161.8531 N.ar    1  UNL1       -0.2796
     13 C         140.0739  138.6178  160.6376 C.ar    1  UNL1        0.1673
     14 N         138.6683  138.2104  160.9664 N.ar    1  UNL1       -0.1315
     15 N         138.3899  138.6097  162.3853 N.ar    1  UNL1       -0.1333
     16 C         139.6235  139.2638  162.9333 C.ar    1  UNL1        0.1465
     17 C         140.7114  138.3814  159.3005 C.3     1  UNL1        0.1632
     18 C         139.7875  139.8159  164.3182 C.3     1  UNL1        0.0625
     19 C         140.3267  138.9450  165.4140 C.3     1  UNL1        0.0291
     20 C         140.4907  139.4971  166.7989 C.3     1  UNL1        0.0926
     21 N         140.1156  140.9203  167.0882 N.pl3   1  UNL1       -0.2932
     22 C         139.5764  141.7914  165.9925 C.3     1  UNL1        0.0926
     23 C         139.4123  141.2392  164.6075 C.3     1  UNL1        0.0291
     24 C         140.2796  141.4725  168.4733 C.ar    1  UNL1        0.1317
     25 C         140.3198  142.9564  168.6891 C.ar    1  UNL1        0.0343
     26 C         140.4838  143.5086  170.0741 C.ar    1  UNL1        0.0045
     27 C         140.6076  142.5770  171.2432 C.ar    1  UNL1        0.0208
     28 C         140.5674  141.0931  171.0273 C.ar    1  UNL1        0.1003
     29 N         140.4034  140.5409  169.6423 N.ar    1  UNL1       -0.2292
     30 C         141.6690  136.2852  156.0802 C.3     1  UNL1        0.2573
     31 O         141.4175  137.6785  156.5756 O.3     1  UNL1       -0.4304
@<TRIPOS>BOND
     1    30    31    1
     2    31     1    1
     3     1     2    2
     4     1     3   am
     5     3     4    1
     6     4     5    1
     7     5     6   ar
     8     6     7   ar
     9     7     8    1
    10     7     9   ar
    11     9    10   ar
    12    10    11   ar
    13    11    12    1
    14    12    13   ar
    15    13    14   ar
    16    14    15   ar
    17    15    16   ar
    18    16    18    1
    19    18    19    1
    20    19    20    1
    21    20    21    1
    22    21    24    1
    23    24    25   ar
    24    25    26   ar
    25    26    27   ar
    26    27    28   ar
    27    28    29   ar
    28    21    22    1
    29    22    23    1
    30    13    17    1
    31    17     3    1
    32    11     5   ar
    33    16    12   ar
    34    23    18    1
    35    29    24   ar
@<TRIPOS>MOLECULE
*****
 31 35 0 0 0
SMALL
GASTEIGER

@<TRIPOS>ATOM
      1 C         137.8888  141.3528  156.8528 C.2     1  UNL1        0.4056
      2 O         137.3559  140.0082  156.4554 O.2     1  UNL1       -0.2262
      3 N         138.3809  141.5812  158.2512 N.am    1  UNL1       -0.2345
      4 C         138.2961  140.4001  159.1720 C.3     1  UNL1        0.1254
      5 C         138.7023  140.3065  160.6130 C.ar    1  UNL1        0.0148
      6 C         138.4481  138.9356  161.1660 C.ar    1  UNL1        0.0102
      7 C         138.7853  138.6291  162.5951 C.ar    1  UNL1        0.0575
      8 CL        138.5312  137.2581  163.1482 Cl      1  UNL1       -0.0823
      9 C         139.3766  139.6935  163.4711 C.ar    1  UNL1        0.0129
     10 C         139.6307  141.0644  162.9181 C.ar    1  UNL1        0.0182
     11 C         139.2935  141.3709  161.4890 C.ar    1  UNL1        0.0639
     12 N         139.6247  142.7918  161.1404 N.ar    1  UNL1       -0.2796
     13 C         139.4464  143.4992  159.8298 C.ar    1  UNL1        0.1673
     14 N         139.9294  144.9096  159.9948 N.ar    1  UNL1       -0.1315
     15 N         140.4062  145.0740  161.4075 N.ar    1  UNL1       -0.1333
     16 C         140.2179  143.7651  162.1155 C.ar    1  UNL1        0.1465
     17 C         138.8929  142.9604  158.5439 C.3     1  UNL1        0.1632
     18 C         140.5623  143.4796  163.5472 C.3     1  UNL1        0.0625
     19 C         139.5237  143.6476  164.6164 C.3     1  UNL1        0.0291
     20 C         139.8681  143.3621  166.0481 C.3     1  UNL1        0.0926
     21 N         141.2511  142.9087  166.4107 N.pl3   1  UNL1       -0.2932
     22 C         142.2898  142.7407  165.3416 C.3     1  UNL1        0.0926
     23 C         141.9454  143.0262  163.9099 C.3     1  UNL1        0.0291
     24 C         141.5956  142.6232  167.8425 C.ar    1  UNL1        0.1317
     25 C         142.9848  142.1912  168.2078 C.ar    1  UNL1        0.0343
     26 C         143.3293  141.9057  169.6396 C.ar    1  UNL1        0.0045
     27 C         142.2845  142.0522  170.7059 C.ar    1  UNL1        0.0208
     28 C         140.8953  142.4842  170.3405 C.ar    1  UNL1        0.1003
     29 N         140.5509  142.7697  168.9088 N.ar    1  UNL1       -0.2292
     30 C         136.6693  143.1973  155.4886 C.3     1  UNL1        0.2573
     31 O         137.9295  142.4692  155.8517 O.3     1  UNL1       -0.4304
@<TRIPOS>BOND
     1    30    31    1
     2    31     1    1
     3     1     2    2
     4     1     3   am
     5     3     4    1
     6     4     5    1
     7     5     6   ar
     8     6     7   ar
     9     7     8    1
    10     7     9   ar
    11     9    10   ar
    12    10    11   ar
    13    11    12    1
    14    12    13   ar
    15    13    14   ar
    16    14    15   ar
    17    15    16   ar
    18    16    18    1
    19    18    19    1
    20    19    20    1
    21    20    21    1
    22    21    24    1
    23    24    25   ar
    24    25    26   ar
    25    26    27   ar
    26    27    28   ar
    27    28    29   ar
    28    21    22    1
    29    22    23    1
    30    13    17    1
    31    17     3    1
    32    11     5   ar
    33    16    12   ar
    34    23    18    1
    35    29    24   ar
@<TRIPOS>MOLECULE
*****
 31 35 0 0 0
SMALL
GASTEIGER

@<TRIPOS>ATOM
      1 C         142.8584  141.6326  169.4422 C.2     1  UNL1        0.4056
      2 O         144.0964  142.4572  169.6360 O.2     1  UNL1       -0.2262
      3 N         142.2399  141.5169  168.0806 N.am    1  UNL1       -0.2345
      4 C         142.9376  142.2642  166.9831 C.3     1  UNL1        0.1254
      5 C         142.5733  142.3484  165.5305 C.ar    1  UNL1        0.0148
      6 C         143.5415  143.2066  164.7715 C.ar    1  UNL1        0.0102
      7 C         143.3574  143.4223  163.2985 C.ar    1  UNL1        0.0575
      8 CL        144.3257  144.2805  162.5394 Cl      1  UNL1       -0.0823
      9 C         142.2053  142.7798  162.5846 C.ar    1  UNL1        0.0129
     10 C         141.2371  141.9216  163.3436 C.ar    1  UNL1        0.0182
     11 C         141.4211  141.7060  164.8165 C.ar    1  UNL1        0.0639
     12 N         140.3488  140.8206  165.3790 N.ar    1  UNL1       -0.2796
     13 C         140.1637  140.3591  166.7942 C.ar    1  UNL1        0.1673
     14 N         138.9424  139.4896  166.8422 N.ar    1  UNL1       -0.1315
     15 N         138.3726  139.4137  165.4568 N.ar    1  UNL1       -0.1333
     16 C         139.2418  140.2363  164.5524 C.ar    1  UNL1        0.1465
     17 C         141.0054  140.6690  167.9965 C.3     1  UNL1        0.1632
     18 C         139.0395  140.4390  163.0801 C.3     1  UNL1        0.0625
     19 C         138.3139  141.6541  162.5828 C.3     1  UNL1        0.0291
     20 C         138.1116  141.8568  161.1105 C.3     1  UNL1        0.0926
     21 N         138.6349  140.8445  160.1352 N.pl3   1  UNL1       -0.2932
     22 C         139.3605  139.6294  160.6323 C.3     1  UNL1        0.0926
     23 C         139.5628  139.4266  162.1047 C.3     1  UNL1        0.0291
     24 C         138.4326  141.0472  158.6627 C.ar    1  UNL1        0.1317
     25 C         138.1198  142.4140  158.1298 C.ar    1  UNL1        0.0343
     26 C         137.9175  142.6167  156.6574 C.ar    1  UNL1        0.0045
     27 C         138.0281  141.4526  155.7179 C.ar    1  UNL1        0.0208
     28 C         138.3409  140.0857  156.2508 C.ar    1  UNL1        0.1003
     29 N         138.5432  139.8831  157.7233 N.ar    1  UNL1       -0.2292
     30 C         141.1944  141.6126  171.4374 C.3     1  UNL1        0.2573
     31 O         142.2390  140.9237  170.6101 O.3     1  UNL1       -0.4304
@<TRIPOS>BOND
     1    30    31    1
     2    31     1    1
     3     1     2    2
     4     1     3   am
     5     3     4    1
     6     4     5    1
     7     5     6   ar
     8     6     7   ar
     9     7     8    1
    10     7     9   ar
    11     9    10   ar
    12    10    11   ar
    13    11    12    1
    14    12    13   ar
    15    13    14   ar
    16    14    15   ar
    17    15    16   ar
    18    16    18    1
    19    18    19    1
    20    19    20    1
    21    20    21    1
    22    21    24    1
    23    24    25   ar
    24    25    26   ar
    25    26    27   ar
    26    27    28   ar
    27    28    29   ar
    28    21    22    1
    29    22    23    1
    30    13    17    1
    31    17     3    1
    32    11     5   ar
    33    16    12   ar
    34    23    18    1
    35    29    24   ar
@<TRIPOS>MOLECULE
*****
 31 35 0 0 0
SMALL
GASTEIGER

@<TRIPOS>ATOM
      1 C         139.3362  140.3790  169.4366 C.2     1  UNL1        0.4056
      2 O         138.0847  139.5650  169.5812 O.2     1  UNL1       -0.2262
      3 N         139.9982  140.5050  168.0965 N.am    1  UNL1       -0.2345
      4 C         139.3278  139.7784  166.9684 C.3     1  UNL1        0.1254
      5 C         139.7366  139.7083  165.5269 C.ar    1  UNL1        0.0148
      6 C         138.7842  138.8696  164.7273 C.ar    1  UNL1        0.0102
      7 C         139.0121  138.6701  163.2582 C.ar    1  UNL1        0.0575
      8 CL        138.0596  137.8314  162.4586 Cl      1  UNL1       -0.0823
      9 C         140.1924  139.3093  162.5888 C.ar    1  UNL1        0.0129
     10 C         141.1449  140.1480  163.3883 C.ar    1  UNL1        0.0182
     11 C         140.9170  140.3475  164.8574 C.ar    1  UNL1        0.0639
     12 N         141.9799  141.2146  165.4641 N.ar    1  UNL1       -0.2796
     13 C         142.1252  141.6568  166.8901 C.ar    1  UNL1        0.1673
     14 N         143.3530  142.5129  166.9872 N.ar    1  UNL1       -0.1315
     15 N         143.9666  142.5999  165.6212 N.ar    1  UNL1       -0.1333
     16 C         143.1181  141.7975  164.6799 C.ar    1  UNL1        0.1465
     17 C         141.2432  141.3410  168.0616 C.3     1  UNL1        0.1632
     18 C         143.3643  141.6108  163.2122 C.3     1  UNL1        0.0625
     19 C         142.8767  142.6374  162.2332 C.3     1  UNL1        0.0291
     20 C         143.1230  142.4507  160.7654 C.3     1  UNL1        0.0926
     21 N         143.8569  141.2374  160.2765 N.pl3   1  UNL1       -0.2932
     22 C         144.3445  140.2107  161.2553 C.3     1  UNL1        0.0926
     23 C         144.0983  140.3974  162.7232 C.3     1  UNL1        0.0291
     24 C         144.1032  141.0506  158.8086 C.ar    1  UNL1        0.1317
     25 C         144.7618  142.1393  158.0142 C.ar    1  UNL1        0.0343
     26 C         145.0081  141.9525  156.5464 C.ar    1  UNL1        0.0045
     27 C         144.5958  140.6772  155.8730 C.ar    1  UNL1        0.0208
     28 C         143.9372  139.5885  156.6674 C.ar    1  UNL1        0.1003
     29 N         143.6909  139.7753  158.1353 N.ar    1  UNL1       -0.2292
     30 C         139.7419  142.5446  170.8134 C.3     1  UNL1        0.2573
     31 O         139.9259  141.0670  170.6320 O.3     1  UNL1       -0.4304
@<TRIPOS>BOND
     1    30    31    1
     2    31     1    1
     3     1     2    2
     4     1     3   am
     5     3     4    1
     6     4     5    1
     7     5     6   ar
     8     6     7   ar
     9     7     8    1
    10     7     9   ar
    11     9    10   ar
    12    10    11   ar
    13    11    12    1
    14    12    13   ar
    15    13    14   ar
    16    14    15   ar
    17    15    16   ar
    18    16    18    1
    19    18    19    1
    20    19    20    1
    21    20    21    1
    22    21    24    1
    23    24    25   ar
    24    25    26   ar
    25    26    27   ar
    26    27    28   ar
    27    28    29   ar
    28    21    22    1
    29    22    23    1
    30    13    17    1
    31    17     3    1
    32    11     5   ar
    33    16    12   ar
    34    23    18    1
    35    29    24   ar
@<TRIPOS>MOLECULE
*****
 31 35 0 0 0
SMALL
GASTEIGER

@<TRIPOS>ATOM
      1 C         140.0897  142.0253  169.3065 C.2     1  UNL1        0.4056
      2 O         140.6721  143.3672  169.6383 O.2     1  UNL1       -0.2262
      3 N         140.0001  141.5793  167.8772 N.am    1  UNL1       -0.2345
      4 C         140.5205  142.5497  166.8587 C.3     1  UNL1        0.1254
      5 C         140.5712  142.4023  165.3668 C.ar    1  UNL1        0.0148
      6 C         141.1717  143.6133  164.7166 C.ar    1  UNL1        0.0102
      7 C         141.3150  143.6701  163.2245 C.ar    1  UNL1        0.0575
      8 CL        141.9155  144.8812  162.5743 Cl      1  UNL1       -0.0823
      9 C         140.8579  142.5158  162.3827 C.ar    1  UNL1        0.0129
     10 C         140.2575  141.3047  163.0329 C.ar    1  UNL1        0.0182
     11 C         140.1141  141.2480  164.5250 C.ar    1  UNL1        0.0639
     12 N         139.4934  139.9560  164.9672 N.ar    1  UNL1       -0.2796
     13 C         139.1764  139.4992  166.3603 C.ar    1  UNL1        0.1673
     14 N         138.5638  138.1329  166.2720 N.ar    1  UNL1       -0.1315
     15 N         138.5021  137.7453  164.8243 N.ar    1  UNL1       -0.1333
     16 C         139.0767  138.8720  164.0178 C.ar    1  UNL1        0.1465
     17 C         139.4019  140.2217  167.6554 C.3     1  UNL1        0.1632
     18 C         139.2109  138.9083  162.5244 C.3     1  UNL1        0.0625
     19 C         138.1194  139.5070  161.6875 C.3     1  UNL1        0.0291
     20 C         138.2536  139.5433  160.1940 C.3     1  UNL1        0.0926
     21 N         139.4793  138.9810  159.5372 N.pl3   1  UNL1       -0.2932
     22 C         140.5708  138.3823  160.3740 C.3     1  UNL1        0.0926
     23 C         140.4366  138.3459  161.8675 C.3     1  UNL1        0.0291
     24 C         139.6135  139.0173  158.0436 C.ar    1  UNL1        0.1317
     25 C         140.8870  138.5635  157.3939 C.ar    1  UNL1        0.0343
     26 C         141.0213  138.5998  155.9003 C.ar    1  UNL1        0.0045
     27 C         139.8820  139.0899  155.0566 C.ar    1  UNL1        0.0208
     28 C         138.6085  139.5437  155.7064 C.ar    1  UNL1        0.1003
     29 N         138.4742  139.5073  157.1999 N.ar    1  UNL1       -0.2292
     30 C         140.5775  140.4244  171.2938 C.3     1  UNL1        0.2573
     31 O         139.5969  141.1294  170.4041 O.3     1  UNL1       -0.4304
@<TRIPOS>BOND
     1    30    31    1
     2    31     1    1
     3     1     2    2
     4     1     3   am
     5     3     4    1
     6     4     5    1
     7     5     6   ar
     8     6     7   ar
     9     7     8    1
    10     7     9   ar
    11     9    10   ar
    12    10    11   ar
    13    11    12    1
    14    12    13   ar
    15    13    14   ar
    16    14    15   ar
    17    15    16   ar
    18    16    18    1
    19    18    19    1
    20    19    20    1
    21    20    21    1
    22    21    24    1
    23    24    25   ar
    24    25    26   ar
    25    26    27   ar
    26    27    28   ar
    27    28    29   ar
    28    21    22    1
    29    22    23    1
    30    13    17    1
    31    17     3    1
    32    11     5   ar
    33    16    12   ar
    34    23    18    1
    35    29    24   ar
@<TRIPOS>MOLECULE
*****
 31 35 0 0 0
SMALL
GASTEIGER

@<TRIPOS>ATOM
      1 C         143.4184  139.5696  157.0689 C.2     1  UNL1        0.4056
      2 O         142.5599  138.5633  156.3616 O.2     1  UNL1       -0.2262
      3 N         143.1222  139.9400  158.4919 N.am    1  UNL1       -0.2345
      4 C         141.9464  139.2466  159.1137 C.3     1  UNL1        0.1254
      5 C         141.3988  139.3968  160.5021 C.ar    1  UNL1        0.0148
      6 C         140.2053  138.5145  160.7189 C.ar    1  UNL1        0.0102
      7 C         139.5049  138.5130  162.0453 C.ar    1  UNL1        0.0575
      8 CL        138.3113  137.6307  162.2622 Cl      1  UNL1       -0.0823
      9 C         139.9980  139.3938  163.1549 C.ar    1  UNL1        0.0129
     10 C         141.1915  140.2760  162.9381 C.ar    1  UNL1        0.0182
     11 C         141.8919  140.2775  161.6117 C.ar    1  UNL1        0.0639
     12 N         143.0543  141.2256  161.6068 N.ar    1  UNL1       -0.2796
     13 C         144.0107  141.5271  160.4913 C.ar    1  UNL1        0.1673
     14 N         144.9948  142.5449  160.9868 N.ar    1  UNL1       -0.1315
     15 N         144.6467  142.8725  162.4086 N.ar    1  UNL1       -0.1333
     16 C         143.4474  142.0571  162.7918 C.ar    1  UNL1        0.1465
     17 C         144.0409  140.9550  159.1050 C.3     1  UNL1        0.1632
     18 C         142.7616  142.0708  164.1257 C.3     1  UNL1        0.0625
     19 C         143.2585  141.1901  165.2337 C.3     1  UNL1        0.0291
     20 C         142.5727  141.2039  166.5676 C.3     1  UNL1        0.0926
     21 N         141.3900  142.0982  166.7937 N.pl3   1  UNL1       -0.2932
     22 C         140.8930  142.9789  165.6858 C.3     1  UNL1        0.0926
     23 C         141.5788  142.9653  164.3518 C.3     1  UNL1        0.0291
     24 C         140.7041  142.1120  168.1277 C.ar    1  UNL1        0.1317
     25 C         140.7268  143.3530  168.9699 C.ar    1  UNL1        0.0343
     26 C         140.0410  143.3667  170.3039 C.ar    1  UNL1        0.0045
     27 C         139.3324  142.1395  170.7956 C.ar    1  UNL1        0.0208
     28 C         139.3097  140.8984  169.9534 C.ar    1  UNL1        0.1003
     29 N         139.9956  140.8847  168.6194 N.ar    1  UNL1       -0.2292
     30 C         145.2063  139.5097  155.1848 C.3     1  UNL1        0.2573
     31 O         144.5733  140.2054  156.3532 O.3     1  UNL1       -0.4304
@<TRIPOS>BOND
     1    30    31    1
     2    31     1    1
     3     1     2    2
     4     1     3   am
     5     3     4    1
     6     4     5    1
     7     5     6   ar
     8     6     7   ar
     9     7     8    1
    10     7     9   ar
    11     9    10   ar
    12    10    11   ar
    13    11    12    1
    14    12    13   ar
    15    13    14   ar
    16    14    15   ar
    17    15    16   ar
    18    16    18    1
    19    18    19    1
    20    19    20    1
    21    20    21    1
    22    21    24    1
    23    24    25   ar
    24    25    26   ar
    25    26    27   ar
    26    27    28   ar
    27    28    29   ar
    28    21    22    1
    29    22    23    1
    30    13    17    1
    31    17     3    1
    32    11     5   ar
    33    16    12   ar
    34    23    18    1
    35    29    24   ar
@<TRIPOS>MOLECULE
*****
 31 35 0 0 0
SMALL
GASTEIGER

@<TRIPOS>ATOM
      1 C         142.0739  140.1637  168.5908 C.2     1  UNL1        0.4056
      2 O         142.9735  138.9689  168.7045 O.2     1  UNL1       -0.2262
      3 N         141.8024  140.7729  167.2473 N.am    1  UNL1       -0.2345
      4 C         142.4794  140.1112  166.0837 C.3     1  UNL1        0.1254
      5 C         142.4111  140.4764  164.6305 C.ar    1  UNL1        0.0148
      6 C         143.2429  139.5507  163.7931 C.ar    1  UNL1        0.0102
      7 C         143.3126  139.7423  162.3070 C.ar    1  UNL1        0.0575
      8 CL        144.1444  138.8167  161.4696 Cl      1  UNL1       -0.0823
      9 C         142.5504  140.8596  161.6584 C.ar    1  UNL1        0.0129
     10 C         141.7185  141.7852  162.4957 C.ar    1  UNL1        0.0182
     11 C         141.6489  141.5936  163.9818 C.ar    1  UNL1        0.0639
     12 N         140.7668  142.6216  164.6262 N.ar    1  UNL1       -0.2796
     13 C         140.4290  142.7862  166.0783 C.ar    1  UNL1        0.1673
     14 N         139.5078  143.9626  166.2094 N.ar    1  UNL1       -0.1315
     15 N         139.2762  144.5251  164.8383 N.ar    1  UNL1       -0.1333
     16 C         140.0543  143.6963  163.8598 C.ar    1  UNL1        0.1465
     17 C         140.8899  141.9635  167.2448 C.3     1  UNL1        0.1632
     18 C         140.1102  143.9055  162.3756 C.3     1  UNL1        0.0625
     19 C         139.2323  143.0934  161.4700 C.3     1  UNL1        0.0291
     20 C         139.2882  143.3026  159.9858 C.3     1  UNL1        0.0926
     21 N         140.2219  144.3239  159.4069 N.pl3   1  UNL1       -0.2932
     22 C         141.0997  145.1361  160.3124 C.3     1  UNL1        0.0926
     23 C         141.0439  144.9269  161.7967 C.3     1  UNL1        0.0291
     24 C         140.2777  144.5332  157.9226 C.ar    1  UNL1        0.1317
     25 C         140.4788  145.9117  157.3666 C.ar    1  UNL1        0.0343
     26 C         140.5347  146.1210  155.8823 C.ar    1  UNL1        0.0045
     27 C         140.3895  144.9517  154.9541 C.ar    1  UNL1        0.0208
     28 C         140.1884  143.5731  155.5101 C.ar    1  UNL1        0.1003
     29 N         140.1325  143.3639  156.9944 N.ar    1  UNL1       -0.2292
     30 C         140.3452  140.0118  170.5244 C.3     1  UNL1        0.2573
     31 O         141.4456  140.7494  169.8206 O.3     1  UNL1       -0.4304
@<TRIPOS>BOND
     1    30    31    1
     2    31     1    1
     3     1     2    2
     4     1     3   am
     5     3     4    1
     6     4     5    1
     7     5     6   ar
     8     6     7   ar
     9     7     8    1
    10     7     9   ar
    11     9    10   ar
    12    10    11   ar
    13    11    12    1
    14    12    13   ar
    15    13    14   ar
    16    14    15   ar
    17    15    16   ar
    18    16    18    1
    19    18    19    1
    20    19    20    1
    21    20    21    1
    22    21    24    1
    23    24    25   ar
    24    25    26   ar
    25    26    27   ar
    26    27    28   ar
    27    28    29   ar
    28    21    22    1
    29    22    23    1
    30    13    17    1
    31    17     3    1
    32    11     5   ar
    33    16    12   ar
    34    23    18    1
    35    29    24   ar
