@<TRIPOS>MOLECULE
*****
 29 31 0 0 0
SMALL
GASTEIGER

@<TRIPOS>ATOM
      1 C         137.9929  138.6175  162.0882 C.3     1  UNL1        0.1164
      2 N         138.6156  139.2367  163.3042 N.am    1  UNL1       -0.2622
      3 C         139.1316  140.6440  163.2485 C.2     1  UNL1        0.3079
      4 O         139.0249  141.4321  161.9767 O.2     1  UNL1       -0.2523
      5 N         139.7542  141.2632  164.4646 N.am    1  UNL1       -0.2540
      6 C         139.9290  140.6017  165.7994 C.3     1  UNL1        0.1221
      7 C         140.5942  141.5823  166.7192 C.2     1  UNL1       -0.0024
      8 C         140.8306  142.8499  165.9528 C.2     1  UNL1       -0.0047
      9 C         140.3114  142.6527  164.5593 C.3     1  UNL1        0.1217
     10 C         140.9591  141.3382  168.1536 C.ar    1  UNL1        0.0271
     11 C         141.5706  140.0301  168.5597 C.ar    1  UNL1        0.0316
     12 C         141.9354  139.7861  169.9940 C.ar    1  UNL1        0.1403
     13 F         142.5469  138.4780  170.4003 F       1  UNL1       -0.2042
     14 C         141.6886  140.8500  171.0222 C.ar    1  UNL1        0.0319
     15 C         141.0771  142.1581  170.6160 C.ar    1  UNL1        0.0319
     16 C         140.7123  142.4022  169.1817 C.ar    1  UNL1        0.1400
     17 F         140.1008  143.7103  168.7755 F       1  UNL1       -0.2042
     18 C         140.3438  143.6669  163.4546 C.ar    1  UNL1       -0.0001
     19 C         139.2448  144.6806  163.3347 C.ar    1  UNL1       -0.0023
     20 C         139.2771  145.6948  162.2300 C.ar    1  UNL1       -0.0003
     21 C         140.4086  145.6952  161.2452 C.ar    1  UNL1       -0.0000
     22 C         141.5077  144.6814  161.3651 C.ar    1  UNL1       -0.0003
     23 C         141.4752  143.6674  162.4698 C.ar    1  UNL1       -0.0023
     24 C         138.7222  138.4485  164.5761 C.3     1  UNL1        0.0964
     25 C         139.6913  137.3077  164.6723 C.3     1  UNL1        0.0384
     26 C         141.0610  137.4347  164.0740 C.3     1  UNL1        0.0669
     27 N         141.3119  136.9707  162.6698 N.3     1  UNL1       -0.3211
     28 H         141.1974  135.9584  162.6206 H       1  UNL1        0.1189
     29 H         142.2621  137.2191  162.3943 H       1  UNL1        0.1189
@<TRIPOS>BOND
     1     1     2    1
     2     2    24    1
     3    24    25    1
     4    25    26    1
     5    26    27    1
     6     2     3   am
     7     3     4    2
     8     3     5   am
     9     5     6    1
    10     6     7    1
    11     7    10    1
    12    10    11   ar
    13    11    12   ar
    14    12    13    1
    15    12    14   ar
    16    14    15   ar
    17    15    16   ar
    18    16    17    1
    19     7     8    2
    20     8     9    1
    21     9    18    1
    22    18    19   ar
    23    19    20   ar
    24    20    21   ar
    25    21    22   ar
    26    22    23   ar
    27     9     5    1
    28    23    18   ar
    29    16    10   ar
    30    27    28    1
    31    27    29    1
@<TRIPOS>MOLECULE
*****
 29 31 0 0 0
SMALL
GASTEIGER

@<TRIPOS>ATOM
      1 C         138.2088  138.0431  166.1779 C.3     1  UNL1        0.1164
      2 N         138.8065  139.2171  165.4606 N.am    1  UNL1       -0.2622
      3 C         139.6399  140.2112  166.2137 C.2     1  UNL1        0.3079
      4 O         139.8757  140.0313  167.6841 O.2     1  UNL1       -0.2523
      5 N         140.2375  141.3852  165.4964 N.am    1  UNL1       -0.2540
      6 C         140.0894  141.6950  164.0363 C.3     1  UNL1        0.1221
      7 C         140.8485  142.9568  163.7507 C.2     1  UNL1       -0.0024
      8 C         141.4659  143.4269  165.0344 C.2     1  UNL1       -0.0047
      9 C         141.0882  142.4556  166.1133 C.3     1  UNL1        0.1217
     10 C         140.9692  143.6303  162.4158 C.ar    1  UNL1        0.0271
     11 C         141.9945  143.1587  161.4278 C.ar    1  UNL1        0.0316
     12 C         142.1151  143.8322  160.0930 C.ar    1  UNL1        0.1403
     13 F         143.1404  143.3606  159.1048 F       1  UNL1       -0.2042
     14 C         141.2103  144.9773  159.7462 C.ar    1  UNL1        0.0319
     15 C         140.1850  145.4489  160.7342 C.ar    1  UNL1        0.0319
     16 C         140.0644  144.7754  162.0690 C.ar    1  UNL1        0.1400
     17 F         139.0390  145.2469  163.0572 F       1  UNL1       -0.2042
     18 C         141.4907  142.5399  167.5559 C.ar    1  UNL1       -0.0001
     19 C         140.5407  143.1093  168.5675 C.ar    1  UNL1       -0.0023
     20 C         140.9432  143.1936  170.0101 C.ar    1  UNL1       -0.0003
     21 C         142.2955  142.7085  170.4409 C.ar    1  UNL1       -0.0000
     22 C         143.2456  142.1391  169.4293 C.ar    1  UNL1       -0.0003
     23 C         142.8431  142.0549  167.9869 C.ar    1  UNL1       -0.0023
     24 C         138.5707  139.3970  163.9902 C.3     1  UNL1        0.0964
     25 C         138.8708  138.2760  163.0399 C.3     1  UNL1        0.0384
     26 C         140.2538  138.1160  162.4817 C.3     1  UNL1        0.0669
     27 N         141.0782  136.9187  162.8519 N.3     1  UNL1       -0.3211
     28 H         141.2986  136.9523  163.8473 H       1  UNL1        0.1189
     29 H         141.9434  136.9214  162.3118 H       1  UNL1        0.1189
@<TRIPOS>BOND
     1     1     2    1
     2     2    24    1
     3    24    25    1
     4    25    26    1
     5    26    27    1
     6     2     3   am
     7     3     4    2
     8     3     5   am
     9     5     6    1
    10     6     7    1
    11     7    10    1
    12    10    11   ar
    13    11    12   ar
    14    12    13    1
    15    12    14   ar
    16    14    15   ar
    17    15    16   ar
    18    16    17    1
    19     7     8    2
    20     8     9    1
    21     9    18    1
    22    18    19   ar
    23    19    20   ar
    24    20    21   ar
    25    21    22   ar
    26    22    23   ar
    27     9     5    1
    28    23    18   ar
    29    16    10   ar
    30    27    28    1
    31    27    29    1
@<TRIPOS>MOLECULE
*****
 29 31 0 0 0
SMALL
GASTEIGER

@<TRIPOS>ATOM
      1 C         144.5371  141.5866  162.0756 C.3     1  UNL1        0.1164
      2 N         143.6502  141.6193  163.2849 N.am    1  UNL1       -0.2622
      3 C         142.2422  141.1097  163.1964 C.2     1  UNL1        0.3079
      4 O         141.7211  140.5672  161.8987 O.2     1  UNL1       -0.2523
      5 N         141.3554  141.1425  164.4057 N.am    1  UNL1       -0.2540
      6 C         141.7352  141.6532  165.7640 C.3     1  UNL1        0.1221
      7 C         140.5475  141.4966  166.6668 C.2     1  UNL1       -0.0024
      8 C         139.4338  140.8892  165.8665 C.2     1  UNL1       -0.0047
      9 C         139.9330  140.6703  164.4691 C.3     1  UNL1        0.1217
     10 C         140.4847  141.8802  168.1157 C.ar    1  UNL1        0.0271
     11 C         140.3804  143.3250  168.5051 C.ar    1  UNL1        0.0316
     12 C         140.3176  143.7085  169.9539 C.ar    1  UNL1        0.1403
     13 F         140.2133  145.1533  170.3434 F       1  UNL1       -0.2042
     14 C         140.3592  142.6472  171.0132 C.ar    1  UNL1        0.0319
     15 C         140.4636  141.2025  170.6237 C.ar    1  UNL1        0.0319
     16 C         140.5263  140.8190  169.1749 C.ar    1  UNL1        0.1400
     17 F         140.6307  139.3742  168.7854 F       1  UNL1       -0.2042
     18 C         139.1478  140.0825  163.3342 C.ar    1  UNL1       -0.0001
     19 C         138.4447  140.9834  162.3627 C.ar    1  UNL1       -0.0023
     20 C         137.6595  140.3956  161.2278 C.ar    1  UNL1       -0.0003
     21 C         137.5774  138.9068  161.0646 C.ar    1  UNL1       -0.0000
     22 C         138.2804  138.0058  162.0362 C.ar    1  UNL1       -0.0003
     23 C         139.0656  138.5937  163.1709 C.ar    1  UNL1       -0.0023
     24 C         144.1714  142.1618  164.5827 C.3     1  UNL1        0.0964
     25 C         144.5126  143.6173  164.7041 C.3     1  UNL1        0.0384
     26 C         143.6164  144.6515  164.0897 C.3     1  UNL1        0.0669
     27 N         143.9208  145.1917  162.7238 N.3     1  UNL1       -0.3211
     28 H         144.7939  145.7182  162.7532 H       1  UNL1        0.1189
     29 H         143.1633  145.8058  162.4245 H       1  UNL1        0.1189
@<TRIPOS>BOND
     1     1     2    1
     2     2    24    1
     3    24    25    1
     4    25    26    1
     5    26    27    1
     6     2     3   am
     7     3     4    2
     8     3     5   am
     9     5     6    1
    10     6     7    1
    11     7    10    1
    12    10    11   ar
    13    11    12   ar
    14    12    13    1
    15    12    14   ar
    16    14    15   ar
    17    15    16   ar
    18    16    17    1
    19     7     8    2
    20     8     9    1
    21     9    18    1
    22    18    19   ar
    23    19    20   ar
    24    20    21   ar
    25    21    22   ar
    26    22    23   ar
    27     9     5    1
    28    23    18   ar
    29    16    10   ar
    30    27    28    1
    31    27    29    1
@<TRIPOS>MOLECULE
*****
 29 31 0 0 0
SMALL
GASTEIGER

@<TRIPOS>ATOM
      1 C         138.3019  137.8187  166.1244 C.3     1  UNL1        0.1164
      2 N         138.8218  139.0518  165.4467 N.am    1  UNL1       -0.2622
      3 C         139.6303  140.0493  166.2220 C.2     1  UNL1        0.3079
      4 O         139.9189  139.8139  167.6750 O.2     1  UNL1       -0.2523
      5 N         140.1502  141.2824  165.5443 N.am    1  UNL1       -0.2540
      6 C         139.9434  141.6511  164.1051 C.3     1  UNL1        0.1221
      7 C         140.6336  142.9598  163.8581 C.2     1  UNL1       -0.0024
      8 C         141.2670  143.3999  165.1446 C.2     1  UNL1       -0.0047
      9 C         140.9683  142.3632  166.1867 C.3     1  UNL1        0.1217
     10 C         140.6819  143.6987  162.5535 C.ar    1  UNL1        0.0271
     11 C         139.9429  144.9946  162.3978 C.ar    1  UNL1        0.0316
     12 C         139.9912  145.7334  161.0933 C.ar    1  UNL1        0.1403
     13 F         139.2521  147.0294  160.9375 F       1  UNL1       -0.2042
     14 C         140.7786  145.1763  159.9445 C.ar    1  UNL1        0.0319
     15 C         141.5177  143.8804  160.1003 C.ar    1  UNL1        0.0319
     16 C         141.4693  143.1416  161.4048 C.ar    1  UNL1        0.1400
     17 F         142.2084  141.8456  161.5606 F       1  UNL1       -0.2042
     18 C         141.4100  142.4007  167.6197 C.ar    1  UNL1       -0.0001
     19 C         140.5438  143.0552  168.6547 C.ar    1  UNL1       -0.0023
     20 C         140.9855  143.0927  170.0877 C.ar    1  UNL1       -0.0003
     21 C         142.2935  142.4756  170.4857 C.ar    1  UNL1       -0.0000
     22 C         143.1598  141.8211  169.4507 C.ar    1  UNL1       -0.0003
     23 C         142.7180  141.7836  168.0178 C.ar    1  UNL1       -0.0023
     24 C         138.5332  139.2872  163.9936 C.3     1  UNL1        0.0964
     25 C         138.8482  138.2231  162.9845 C.3     1  UNL1        0.0384
     26 C         140.2536  138.0518  162.4891 C.3     1  UNL1        0.0669
     27 N         141.0860  136.9031  162.9769 N.3     1  UNL1       -0.3211
     28 H         141.2690  137.0151  163.9740 H       1  UNL1        0.1189
     29 H         141.9704  136.8843  162.4689 H       1  UNL1        0.1189
@<TRIPOS>BOND
     1     1     2    1
     2     2    24    1
     3    24    25    1
     4    25    26    1
     5    26    27    1
     6     2     3   am
     7     3     4    2
     8     3     5   am
     9     5     6    1
    10     6     7    1
    11     7    10    1
    12    10    11   ar
    13    11    12   ar
    14    12    13    1
    15    12    14   ar
    16    14    15   ar
    17    15    16   ar
    18    16    17    1
    19     7     8    2
    20     8     9    1
    21     9    18    1
    22    18    19   ar
    23    19    20   ar
    24    20    21   ar
    25    21    22   ar
    26    22    23   ar
    27     9     5    1
    28    23    18   ar
    29    16    10   ar
    30    27    28    1
    31    27    29    1
@<TRIPOS>MOLECULE
*****
 29 31 0 0 0
SMALL
GASTEIGER

@<TRIPOS>ATOM
      1 C         138.7081  144.9836  165.6837 C.3     1  UNL1        0.1164
      2 N         139.4518  143.7985  165.1431 N.am    1  UNL1       -0.2622
      3 C         140.1849  142.8828  166.0780 C.2     1  UNL1        0.3079
      4 O         140.1742  143.1522  167.5536 O.2     1  UNL1       -0.2523
      5 N         140.9286  141.6976  165.5374 N.am    1  UNL1       -0.2540
      6 C         141.0283  141.3029  164.0937 C.3     1  UNL1        0.1221
      7 C         141.8645  140.0604  164.0096 C.2     1  UNL1       -0.0024
      8 C         142.2816  139.6873  165.4013 C.2     1  UNL1       -0.0047
      9 C         141.7032  140.6991  166.3455 C.3     1  UNL1        0.1217
     10 C         142.2210  139.3209  162.7541 C.ar    1  UNL1        0.0271
     11 C         141.1974  139.1427  161.6723 C.ar    1  UNL1        0.0316
     12 C         141.5540  138.4032  160.4170 C.ar    1  UNL1        0.1403
     13 F         140.5303  138.2249  159.3351 F       1  UNL1       -0.2042
     14 C         142.9341  137.8420  160.2434 C.ar    1  UNL1        0.0319
     15 C         143.9578  138.0202  161.3252 C.ar    1  UNL1        0.0319
     16 C         143.6012  138.7597  162.5806 C.ar    1  UNL1        0.1400
     17 F         144.6249  138.9379  163.6625 F       1  UNL1       -0.2042
     18 C         141.8700  140.7105  167.8362 C.ar    1  UNL1       -0.0001
     19 C         143.0088  141.4634  168.4577 C.ar    1  UNL1       -0.0023
     20 C         143.1756  141.4747  169.9484 C.ar    1  UNL1       -0.0003
     21 C         142.2037  140.7332  170.8174 C.ar    1  UNL1       -0.0000
     22 C         141.0649  139.9802  170.1959 C.ar    1  UNL1       -0.0003
     23 C         140.8981  139.9689  168.7054 C.ar    1  UNL1       -0.0023
     24 C         139.4625  143.5290  163.6675 C.3     1  UNL1        0.0964
     25 C         138.1697  143.4391  162.9123 C.3     1  UNL1        0.0384
     26 C         137.7259  142.1260  162.3388 C.3     1  UNL1        0.0669
     27 N         136.7468  141.2724  163.0891 N.3     1  UNL1       -0.3211
     28 H         137.1750  140.9446  163.9549 H       1  UNL1        0.1189
     29 H         136.4843  140.4713  162.5150 H       1  UNL1        0.1189
@<TRIPOS>BOND
     1     1     2    1
     2     2    24    1
     3    24    25    1
     4    25    26    1
     5    26    27    1
     6     2     3   am
     7     3     4    2
     8     3     5   am
     9     5     6    1
    10     6     7    1
    11     7    10    1
    12    10    11   ar
    13    11    12   ar
    14    12    13    1
    15    12    14   ar
    16    14    15   ar
    17    15    16   ar
    18    16    17    1
    19     7     8    2
    20     8     9    1
    21     9    18    1
    22    18    19   ar
    23    19    20   ar
    24    20    21   ar
    25    21    22   ar
    26    22    23   ar
    27     9     5    1
    28    23    18   ar
    29    16    10   ar
    30    27    28    1
    31    27    29    1
@<TRIPOS>MOLECULE
*****
 29 31 0 0 0
SMALL
GASTEIGER

@<TRIPOS>ATOM
      1 C         140.8960  144.8464  161.9604 C.3     1  UNL1        0.1164
      2 N         140.9306  143.8419  163.0739 N.am    1  UNL1       -0.2622
      3 C         141.3431  142.4270  162.7951 C.2     1  UNL1        0.3079
      4 O         141.7211  142.0165  161.4027 O.2     1  UNL1       -0.2523
      5 N         141.3777  141.4226  163.9086 N.am    1  UNL1       -0.2540
      6 C         141.0288  141.6848  165.3436 C.3     1  UNL1        0.1221
      7 C         141.2027  140.4038  166.1045 C.2     1  UNL1       -0.0024
      8 C         141.6590  139.3499  165.1397 C.2     1  UNL1       -0.0047
      9 C         141.7672  139.9795  163.7825 C.3     1  UNL1        0.1217
     10 C         140.9624  140.2107  167.5725 C.ar    1  UNL1        0.0271
     11 C         139.6436  140.5971  168.1738 C.ar    1  UNL1        0.0316
     12 C         139.4034  140.4040  169.6418 C.ar    1  UNL1        0.1403
     13 F         138.0846  140.7904  170.2432 F       1  UNL1       -0.2042
     14 C         140.4819  139.8245  170.5084 C.ar    1  UNL1        0.0319
     15 C         141.8006  139.4381  169.9071 C.ar    1  UNL1        0.0319
     16 C         142.0408  139.6312  168.4392 C.ar    1  UNL1        0.1400
     17 F         143.3596  139.2448  167.8378 F       1  UNL1       -0.2042
     18 C         142.1906  139.2875  162.5207 C.ar    1  UNL1       -0.0001
     19 C         143.6484  139.1296  162.2049 C.ar    1  UNL1       -0.0023
     20 C         144.0718  138.4377  160.9431 C.ar    1  UNL1       -0.0003
     21 C         143.0373  137.9036  159.9973 C.ar    1  UNL1       -0.0000
     22 C         141.5794  138.0615  160.3132 C.ar    1  UNL1       -0.0003
     23 C         141.1561  138.7534  161.5749 C.ar    1  UNL1       -0.0023
     24 C         140.5526  144.2524  164.4663 C.3     1  UNL1        0.0964
     25 C         139.1624  144.7366  164.7541 C.3     1  UNL1        0.0384
     26 C         137.9836  144.0370  164.1450 C.3     1  UNL1        0.0669
     27 N         137.4659  144.4681  162.8047 N.3     1  UNL1       -0.3211
     28 H         137.0867  145.4125  162.8744 H       1  UNL1        0.1189
     29 H         136.7314  143.8283  162.5021 H       1  UNL1        0.1189
@<TRIPOS>BOND
     1     1     2    1
     2     2    24    1
     3    24    25    1
     4    25    26    1
     5    26    27    1
     6     2     3   am
     7     3     4    2
     8     3     5   am
     9     5     6    1
    10     6     7    1
    11     7    10    1
    12    10    11   ar
    13    11    12   ar
    14    12    13    1
    15    12    14   ar
    16    14    15   ar
    17    15    16   ar
    18    16    17    1
    19     7     8    2
    20     8     9    1
    21     9    18    1
    22    18    19   ar
    23    19    20   ar
    24    20    21   ar
    25    21    22   ar
    26    22    23   ar
    27     9     5    1
    28    23    18   ar
    29    16    10   ar
    30    27    28    1
    31    27    29    1
@<TRIPOS>MOLECULE
*****
 29 31 0 0 0
SMALL
GASTEIGER

@<TRIPOS>ATOM
      1 C         141.2528  145.0306  160.9084 C.3     1  UNL1        0.1164
      2 N         141.2132  144.3937  162.2659 N.am    1  UNL1       -0.2622
      3 C         140.7171  142.9865  162.4199 C.2     1  UNL1        0.3079
      4 O         140.2604  142.2163  161.2165 O.2     1  UNL1       -0.2523
      5 N         140.6775  142.3496  163.7774 N.am    1  UNL1       -0.2540
      6 C         141.0993  142.9922  165.0654 C.3     1  UNL1        0.1221
      7 C         140.8918  141.9980  166.1693 C.2     1  UNL1       -0.0024
      8 C         140.3416  140.7409  165.5634 C.2     1  UNL1       -0.0047
      9 C         140.2092  140.9582  164.0852 C.3     1  UNL1        0.1217
     10 C         141.1831  142.2216  167.6237 C.ar    1  UNL1        0.0271
     11 C         140.3833  143.2226  168.4035 C.ar    1  UNL1        0.0316
     12 C         140.6747  143.4462  169.8578 C.ar    1  UNL1        0.1403
     13 F         139.8749  144.4473  170.6378 F       1  UNL1       -0.2042
     14 C         141.7660  142.6689  170.5322 C.ar    1  UNL1        0.0319
     15 C         142.5658  141.6679  169.7524 C.ar    1  UNL1        0.0319
     16 C         142.2744  141.4443  168.2981 C.ar    1  UNL1        0.1400
     17 F         143.0742  140.4432  167.5182 F       1  UNL1       -0.2042
     18 C         139.6983  139.9594  163.0895 C.ar    1  UNL1       -0.0001
     19 C         138.2265  139.8556  162.8190 C.ar    1  UNL1       -0.0023
     20 C         137.7155  138.8568  161.8233 C.ar    1  UNL1       -0.0003
     21 C         138.6763  137.9619  161.0982 C.ar    1  UNL1       -0.0000
     22 C         140.1482  138.0657  161.3686 C.ar    1  UNL1       -0.0003
     23 C         140.6590  139.0644  162.3643 C.ar    1  UNL1       -0.0023
     24 C         141.6699  145.1639  163.4693 C.3     1  UNL1        0.0964
     25 C         143.1355  145.3255  163.7445 C.3     1  UNL1        0.0384
     26 C         144.0804  144.1948  163.4641 C.3     1  UNL1        0.0669
     27 N         144.6719  144.0336  162.0951 N.3     1  UNL1       -0.3211
     28 H         143.9326  143.8072  161.4297 H       1  UNL1        0.1189
     29 H         145.3596  143.2804  162.1083 H       1  UNL1        0.1189
@<TRIPOS>BOND
     1     1     2    1
     2     2    24    1
     3    24    25    1
     4    25    26    1
     5    26    27    1
     6     2     3   am
     7     3     4    2
     8     3     5   am
     9     5     6    1
    10     6     7    1
    11     7    10    1
    12    10    11   ar
    13    11    12   ar
    14    12    13    1
    15    12    14   ar
    16    14    15   ar
    17    15    16   ar
    18    16    17    1
    19     7     8    2
    20     8     9    1
    21     9    18    1
    22    18    19   ar
    23    19    20   ar
    24    20    21   ar
    25    21    22   ar
    26    22    23   ar
    27     9     5    1
    28    23    18   ar
    29    16    10   ar
    30    27    28    1
    31    27    29    1
@<TRIPOS>MOLECULE
*****
 29 31 0 0 0
SMALL
GASTEIGER

@<TRIPOS>ATOM
      1 C         140.6522  144.8101  161.5068 C.3     1  UNL1        0.1164
      2 N         140.8395  144.1084  162.8192 N.am    1  UNL1       -0.2622
      3 C         141.3488  142.6978  162.8495 C.2     1  UNL1        0.3079
      4 O         141.6708  141.9890  161.5673 O.2     1  UNL1       -0.2523
      5 N         141.5361  141.9961  164.1619 N.am    1  UNL1       -0.2540
      6 C         141.2578  142.5735  165.5180 C.3     1  UNL1        0.1221
      7 C         141.5843  141.5280  166.5429 C.2     1  UNL1       -0.0024
      8 C         142.0643  140.3044  165.8202 C.2     1  UNL1       -0.0047
      9 C         142.0345  140.5936  164.3486 C.3     1  UNL1        0.1217
     10 C         141.4537  141.6795  168.0296 C.ar    1  UNL1        0.0271
     11 C         142.4349  142.5247  168.7864 C.ar    1  UNL1        0.0316
     12 C         142.3042  142.6762  170.2729 C.ar    1  UNL1        0.1403
     13 F         143.2855  143.5214  171.0299 F       1  UNL1       -0.2042
     14 C         141.1923  141.9826  171.0027 C.ar    1  UNL1        0.0319
     15 C         140.2111  141.1374  170.2459 C.ar    1  UNL1        0.0319
     16 C         140.3417  140.9859  168.7593 C.ar    1  UNL1        0.1400
     17 F         139.3605  140.1407  168.0024 F       1  UNL1       -0.2042
     18 C         142.4331  139.6467  163.2557 C.ar    1  UNL1       -0.0001
     19 C         141.4034  138.7631  162.6163 C.ar    1  UNL1       -0.0023
     20 C         141.8020  137.8162  161.5234 C.ar    1  UNL1       -0.0003
     21 C         143.2304  137.7530  161.0699 C.ar    1  UNL1       -0.0000
     22 C         144.2602  138.6366  161.7093 C.ar    1  UNL1       -0.0003
     23 C         143.8615  139.5835  162.8021 C.ar    1  UNL1       -0.0023
     24 C         140.5174  144.8172  164.1013 C.3     1  UNL1        0.0964
     25 C         139.1007  144.8758  164.5904 C.3     1  UNL1        0.0384
     26 C         138.0523  144.0095  163.9575 C.3     1  UNL1        0.0669
     27 N         137.4099  144.4300  162.6688 N.3     1  UNL1       -0.3211
     28 H         136.8619  145.2765  162.8223 H       1  UNL1        0.1189
     29 H         136.7983  143.6850  162.3348 H       1  UNL1        0.1189
@<TRIPOS>BOND
     1     1     2    1
     2     2    24    1
     3    24    25    1
     4    25    26    1
     5    26    27    1
     6     2     3   am
     7     3     4    2
     8     3     5   am
     9     5     6    1
    10     6     7    1
    11     7    10    1
    12    10    11   ar
    13    11    12   ar
    14    12    13    1
    15    12    14   ar
    16    14    15   ar
    17    15    16   ar
    18    16    17    1
    19     7     8    2
    20     8     9    1
    21     9    18    1
    22    18    19   ar
    23    19    20   ar
    24    20    21   ar
    25    21    22   ar
    26    22    23   ar
    27     9     5    1
    28    23    18   ar
    29    16    10   ar
    30    27    28    1
    31    27    29    1
@<TRIPOS>MOLECULE
*****
 29 31 0 0 0
SMALL
GASTEIGER

@<TRIPOS>ATOM
      1 C         144.9753  143.8265  165.7136 C.3     1  UNL1        0.1164
      2 N         143.7514  143.1130  165.2207 N.am    1  UNL1       -0.2622
      3 C         142.8376  142.4307  166.1952 C.2     1  UNL1        0.3079
      4 O         143.1478  142.4620  167.6625 O.2     1  UNL1       -0.2523
      5 N         141.6137  141.7172  165.7024 N.am    1  UNL1       -0.2540
      6 C         141.1762  141.6018  164.2723 C.3     1  UNL1        0.1221
      7 C         139.9045  140.8071  164.2392 C.2     1  UNL1       -0.0024
      8 C         139.5560  140.4313  165.6489 C.2     1  UNL1       -0.0047
      9 C         140.6123  140.9937  166.5532 C.3     1  UNL1        0.1217
     10 C         139.1192  140.4507  163.0118 C.ar    1  UNL1        0.0271
     11 C         138.9928  141.4378  161.8895 C.ar    1  UNL1        0.0316
     12 C         138.2075  141.0814  160.6622 C.ar    1  UNL1        0.1403
     13 F         138.0811  142.0685  159.5398 F       1  UNL1       -0.2042
     14 C         137.5486  139.7380  160.5573 C.ar    1  UNL1        0.0319
     15 C         137.6750  138.7509  161.6796 C.ar    1  UNL1        0.0319
     16 C         138.4603  139.1073  162.9069 C.ar    1  UNL1        0.1400
     17 F         138.5867  138.1202  164.0293 F       1  UNL1       -0.2042
     18 C         140.6590  140.8568  168.0462 C.ar    1  UNL1       -0.0001
     19 C         141.3522  139.6821  168.6703 C.ar    1  UNL1       -0.0023
     20 C         141.3989  139.5451  170.1633 C.ar    1  UNL1       -0.0003
     21 C         140.7525  140.5830  171.0322 C.ar    1  UNL1       -0.0000
     22 C         140.0593  141.7578  170.4081 C.ar    1  UNL1       -0.0003
     23 C         140.0126  141.8946  168.9152 C.ar    1  UNL1       -0.0023
     24 C         143.4413  143.0816  163.7535 C.3     1  UNL1        0.0964
     25 C         143.1130  144.3534  163.0291 C.3     1  UNL1        0.0384
     26 C         142.1852  145.3536  163.6526 C.3     1  UNL1        0.0669
     27 N         141.0433  145.9146  162.8579 N.3     1  UNL1       -0.3211
     28 H         141.4081  146.4765  162.0887 H       1  UNL1        0.1189
     29 H         140.4640  146.4988  163.4608 H       1  UNL1        0.1189
@<TRIPOS>BOND
     1     1     2    1
     2     2    24    1
     3    24    25    1
     4    25    26    1
     5    26    27    1
     6     2     3   am
     7     3     4    2
     8     3     5   am
     9     5     6    1
    10     6     7    1
    11     7    10    1
    12    10    11   ar
    13    11    12   ar
    14    12    13    1
    15    12    14   ar
    16    14    15   ar
    17    15    16   ar
    18    16    17    1
    19     7     8    2
    20     8     9    1
    21     9    18    1
    22    18    19   ar
    23    19    20   ar
    24    20    21   ar
    25    21    22   ar
    26    22    23   ar
    27     9     5    1
    28    23    18   ar
    29    16    10   ar
    30    27    28    1
    31    27    29    1
