@<TRIPOS>MOLECULE
*****
 31 34 0 0 0
SMALL
GASTEIGER

@<TRIPOS>ATOM
      1 N         144.2981  140.0053  163.9233 N.3     1  UNL1       -0.2700
      2 C         143.7964  139.2479  162.7298 C.3     1  UNL1        0.0897
      3 C         142.6528  138.2885  162.8768 C.3     1  UNL1        0.0897
      4 N         142.0109  138.0864  164.2173 N.3     1  UNL1       -0.2700
      5 C         142.5126  138.8437  165.4109 C.3     1  UNL1        0.0897
      6 C         143.6562  139.8032  165.2639 C.3     1  UNL1        0.0897
      7 C         145.4417  140.9648  163.7764 C.3     1  UNL1        0.0769
      8 C         145.2597  142.4094  164.1365 C.3     1  UNL1        0.0438
      9 C         142.7455  144.1181  161.5851 C.ar    1  UNL1        0.1477
     10 C         143.9198  143.3539  162.1208 C.ar    1  UNL1        0.0334
     11 C         144.0854  143.1736  163.6008 C.ar    1  UNL1       -0.0177
     12 C         143.0767  143.7577  164.5450 C.ar    1  UNL1       -0.0033
     13 C         141.9024  144.5220  164.0092 C.ar    1  UNL1        0.0130
     14 C         141.7369  144.7021  162.5293 C.ar    1  UNL1        0.1023
     15 C         140.5625  145.4664  161.9935 C.1     1  UNL1        0.1035
     16 N         139.3883  146.2306  161.4577 N.1     1  UNL1       -0.1907
     17 O         142.5799  144.2983  160.1052 O.3     1  UNL1       -0.4748
     18 C         141.3882  141.9989  159.8989 C.3     1  UNL1        0.0512
     19 C         142.0951  143.1576  159.2604 C.3     1  UNL1        0.2056
     20 C         140.8673  137.1269  164.3643 C.3     1  UNL1        0.0769
     21 C         139.5094  137.6323  164.7523 C.3     1  UNL1        0.0437
     22 C         139.0821  139.0146  164.3561 C.ar    1  UNL1       -0.0210
     23 C         138.9371  140.0826  165.3992 C.ar    1  UNL1       -0.0040
     24 C         138.5099  141.4648  165.0030 C.ar    1  UNL1        0.0059
     25 C         138.2277  141.7789  163.5637 C.ar    1  UNL1        0.0751
     26 C         138.3726  140.7108  162.5205 C.ar    1  UNL1        0.0272
     27 C         138.7999  139.3286  162.9168 C.ar    1  UNL1       -0.0047
     28 C         138.0279  141.3122  161.1903 C.3     1  UNL1        0.2356
     29 O         137.6698  142.7520  161.4113 O.3     1  UNL1       -0.4404
     30 C         137.7933  143.0405  162.8781 C.2     1  UNL1        0.3413
     31 O         137.5288  144.3589  163.5427 O.2     1  UNL1       -0.2449
@<TRIPOS>BOND
     1    18    19    1
     2    19    17    1
     3    17     9    1
     4     9    10   ar
     5    10    11   ar
     6    11     8    1
     7     8     7    1
     8     7     1    1
     9     1     2    1
    10     2     3    1
    11     3     4    1
    12     4    20    1
    13    20    21    1
    14    21    22    1
    15    22    23   ar
    16    23    24   ar
    17    24    25   ar
    18    25    26   ar
    19    26    27   ar
    20    26    28    1
    21    28    29    1
    22    29    30    1
    23    30    31    2
    24     4     5    1
    25     5     6    1
    26    11    12   ar
    27    12    13   ar
    28    13    14   ar
    29    14    15    1
    30    15    16    3
    31    14     9   ar
    32     6     1    1
    33    27    22   ar
    34    30    25    1
@<TRIPOS>MOLECULE
*****
 31 34 0 0 0
SMALL
GASTEIGER

@<TRIPOS>ATOM
      1 N         139.8751  138.6926  162.2285 N.3     1  UNL1       -0.2700
      2 C         141.1178  139.5312  162.2773 C.3     1  UNL1        0.0897
      3 C         142.0808  139.3792  163.4172 C.3     1  UNL1        0.0897
      4 N         141.8012  138.3886  164.5083 N.3     1  UNL1       -0.2700
      5 C         140.5585  137.5500  164.4596 C.3     1  UNL1        0.0897
      6 C         139.5954  137.7020  163.3197 C.3     1  UNL1        0.0897
      7 C         138.9120  138.8445  161.0886 C.3     1  UNL1        0.0769
      8 C         137.7982  139.8454  161.1761 C.3     1  UNL1        0.0438
      9 C         138.1551  143.5005  162.6803 C.ar    1  UNL1        0.1477
     10 C         138.0775  142.3768  161.6897 C.ar    1  UNL1        0.0334
     11 C         137.8758  140.9690  162.1667 C.ar    1  UNL1       -0.0177
     12 C         137.7516  140.6849  163.6343 C.ar    1  UNL1       -0.0033
     13 C         137.8291  141.8087  164.6249 C.ar    1  UNL1        0.0130
     14 C         138.0309  143.2164  164.1479 C.ar    1  UNL1        0.1023
     15 C         138.1085  144.3402  165.1385 C.1     1  UNL1        0.1035
     16 N         138.1861  145.4639  166.1290 N.1     1  UNL1       -0.1907
     17 O         138.3568  144.9083  162.2033 O.3     1  UNL1       -0.4748
     18 C         140.8146  145.5587  162.7381 C.3     1  UNL1        0.0512
     19 C         139.7117  145.3568  161.7418 C.3     1  UNL1        0.2056
     20 C         142.7643  138.2367  165.6483 C.3     1  UNL1        0.0769
     21 C         143.3522  139.4527  166.3006 C.3     1  UNL1        0.0437
     22 C         142.5193  140.2793  167.2351 C.ar    1  UNL1       -0.0210
     23 C         142.9231  141.6886  167.5523 C.ar    1  UNL1       -0.0040
     24 C         142.0902  142.5151  168.4868 C.ar    1  UNL1        0.0059
     25 C         140.8536  141.9322  169.1041 C.ar    1  UNL1        0.0751
     26 C         140.4499  140.5228  168.7869 C.ar    1  UNL1        0.0272
     27 C         141.2827  139.6964  167.8524 C.ar    1  UNL1       -0.0047
     28 C         139.1888  140.2211  169.5409 C.3     1  UNL1        0.2356
     29 O         138.8131  141.4440  170.3242 O.3     1  UNL1       -0.4404
     30 C         139.8421  142.5015  170.0542 C.2     1  UNL1        0.3413
     31 O         139.8569  143.8854  170.6327 O.2     1  UNL1       -0.2449
@<TRIPOS>BOND
     1    18    19    1
     2    19    17    1
     3    17     9    1
     4     9    10   ar
     5    10    11   ar
     6    11     8    1
     7     8     7    1
     8     7     1    1
     9     1     2    1
    10     2     3    1
    11     3     4    1
    12     4    20    1
    13    20    21    1
    14    21    22    1
    15    22    23   ar
    16    23    24   ar
    17    24    25   ar
    18    25    26   ar
    19    26    27   ar
    20    26    28    1
    21    28    29    1
    22    29    30    1
    23    30    31    2
    24     4     5    1
    25     5     6    1
    26    11    12   ar
    27    12    13   ar
    28    13    14   ar
    29    14    15    1
    30    15    16    3
    31    14     9   ar
    32     6     1    1
    33    27    22   ar
    34    30    25    1
@<TRIPOS>MOLECULE
*****
 31 34 0 0 0
SMALL
GASTEIGER

@<TRIPOS>ATOM
      1 N         142.4063  138.5020  164.0065 N.3     1  UNL1       -0.2700
      2 C         141.2151  137.7435  164.5122 C.3     1  UNL1        0.0897
      3 C         140.0217  137.5435  163.6258 C.3     1  UNL1        0.0897
      4 N         140.0196  138.1020  162.2336 N.3     1  UNL1       -0.2700
      5 C         141.2107  138.8604  161.7279 C.3     1  UNL1        0.0897
      6 C         142.4041  139.0604  162.6143 C.3     1  UNL1        0.0897
      7 C         143.5997  138.7020  164.8930 C.3     1  UNL1        0.0769
      8 C         143.4464  138.6353  166.3836 C.3     1  UNL1        0.0438
      9 C         141.7076  140.7307  169.2708 C.ar    1  UNL1        0.1477
     10 C         142.3311  139.5857  168.5290 C.ar    1  UNL1        0.0334
     11 C         142.8229  139.7803  167.1254 C.ar    1  UNL1       -0.0177
     12 C         142.6913  141.1200  166.4635 C.ar    1  UNL1       -0.0033
     13 C         142.0678  142.2650  167.2054 C.ar    1  UNL1        0.0130
     14 C         141.5760  142.0703  168.6090 C.ar    1  UNL1        0.1023
     15 C         140.9525  143.2153  169.3509 C.1     1  UNL1        0.1035
     16 N         140.3291  144.3603  170.0926 N.1     1  UNL1       -0.1907
     17 O         141.2158  140.5360  170.6745 O.3     1  UNL1       -0.4748
     18 C         138.7263  140.2788  169.9771 C.3     1  UNL1        0.0512
     19 C         139.8509  139.9637  170.9184 C.3     1  UNL1        0.2056
     20 C         138.8261  137.9019  161.3471 C.3     1  UNL1        0.0769
     21 C         137.6419  138.8148  161.4662 C.3     1  UNL1        0.0437
     22 C         137.8463  140.2793  161.7188 C.ar    1  UNL1       -0.0210
     23 C         138.2548  141.1844  160.5946 C.ar    1  UNL1       -0.0040
     24 C         138.4591  142.6488  160.8472 C.ar    1  UNL1        0.0059
     25 C         138.2550  143.2080  162.2240 C.ar    1  UNL1        0.0751
     26 C         137.8465  142.3028  163.3482 C.ar    1  UNL1        0.0272
     27 C         137.6422  140.8385  163.0956 C.ar    1  UNL1       -0.0047
     28 C         137.7205  143.1343  164.5903 C.3     1  UNL1        0.2356
     29 O         138.0510  144.5533  164.2338 O.3     1  UNL1       -0.4404
     30 C         138.3814  144.5989  162.7713 C.2     1  UNL1        0.3413
     31 O         138.7699  145.8208  161.9928 O.2     1  UNL1       -0.2449
@<TRIPOS>BOND
     1    18    19    1
     2    19    17    1
     3    17     9    1
     4     9    10   ar
     5    10    11   ar
     6    11     8    1
     7     8     7    1
     8     7     1    1
     9     1     2    1
    10     2     3    1
    11     3     4    1
    12     4    20    1
    13    20    21    1
    14    21    22    1
    15    22    23   ar
    16    23    24   ar
    17    24    25   ar
    18    25    26   ar
    19    26    27   ar
    20    26    28    1
    21    28    29    1
    22    29    30    1
    23    30    31    2
    24     4     5    1
    25     5     6    1
    26    11    12   ar
    27    12    13   ar
    28    13    14   ar
    29    14    15    1
    30    15    16    3
    31    14     9   ar
    32     6     1    1
    33    27    22   ar
    34    30    25    1
@<TRIPOS>MOLECULE
*****
 31 34 0 0 0
SMALL
GASTEIGER

@<TRIPOS>ATOM
      1 N         140.6080  140.4655  167.0154 N.3     1  UNL1       -0.2700
      2 C         140.5636  141.9315  166.7012 C.3     1  UNL1        0.0897
      3 C         141.7171  142.5831  165.9978 C.3     1  UNL1        0.0897
      4 N         142.9150  141.7686  165.6086 N.3     1  UNL1       -0.2700
      5 C         142.9595  140.3026  165.9228 C.3     1  UNL1        0.0897
      6 C         141.8060  139.6510  166.6262 C.3     1  UNL1        0.0897
      7 C         139.4545  139.8139  167.7189 C.3     1  UNL1        0.0769
      8 C         138.3997  139.0996  166.9270 C.3     1  UNL1        0.0438
      9 C         137.7818  140.5541  163.2865 C.ar    1  UNL1        0.1477
     10 C         137.8036  140.4388  164.7819 C.ar    1  UNL1        0.0334
     11 C         138.3780  139.2149  165.4316 C.ar    1  UNL1       -0.0177
     12 C         138.9306  138.1061  164.5858 C.ar    1  UNL1       -0.0033
     13 C         138.9088  138.2214  163.0903 C.ar    1  UNL1        0.0130
     14 C         138.3345  139.4454  162.4407 C.ar    1  UNL1        0.1023
     15 C         138.3127  139.5606  160.9453 C.1     1  UNL1        0.1035
     16 N         138.2909  139.6760  159.4499 N.1     1  UNL1       -0.1907
     17 O         137.2074  141.7781  162.6369 O.3     1  UNL1       -0.4748
     18 C         137.7688  144.0441  163.7770 C.3     1  UNL1        0.0512
     19 C         137.9736  143.0675  162.6571 C.3     1  UNL1        0.2056
     20 C         144.0686  142.4202  164.9051 C.3     1  UNL1        0.0769
     21 C         143.9373  143.8227  164.3896 C.3     1  UNL1        0.0437
     22 C         143.0739  144.1053  163.1960 C.ar    1  UNL1       -0.0210
     23 C         143.3539  143.4236  161.8895 C.ar    1  UNL1       -0.0040
     24 C         142.4906  143.7062  160.6959 C.ar    1  UNL1        0.0059
     25 C         141.3472  144.6706  160.8088 C.ar    1  UNL1        0.0751
     26 C         141.0672  145.3523  162.1152 C.ar    1  UNL1        0.0272
     27 C         141.9306  145.0697  163.3088 C.ar    1  UNL1       -0.0047
     28 C         139.8789  146.2477  161.9254 C.3     1  UNL1        0.2356
     29 O         139.4244  146.1194  160.5017 O.3     1  UNL1       -0.4404
     30 C         140.3319  145.1446  159.8115 C.2     1  UNL1        0.3413
     31 O         140.2402  144.7187  158.3762 O.2     1  UNL1       -0.2449
@<TRIPOS>BOND
     1    18    19    1
     2    19    17    1
     3    17     9    1
     4     9    10   ar
     5    10    11   ar
     6    11     8    1
     7     8     7    1
     8     7     1    1
     9     1     2    1
    10     2     3    1
    11     3     4    1
    12     4    20    1
    13    20    21    1
    14    21    22    1
    15    22    23   ar
    16    23    24   ar
    17    24    25   ar
    18    25    26   ar
    19    26    27   ar
    20    26    28    1
    21    28    29    1
    22    29    30    1
    23    30    31    2
    24     4     5    1
    25     5     6    1
    26    11    12   ar
    27    12    13   ar
    28    13    14   ar
    29    14    15    1
    30    15    16    3
    31    14     9   ar
    32     6     1    1
    33    27    22   ar
    34    30    25    1
@<TRIPOS>MOLECULE
*****
 31 34 0 0 0
SMALL
GASTEIGER

@<TRIPOS>ATOM
      1 N         137.9180  142.9548  163.2798 N.3     1  UNL1       -0.2700
      2 C         137.7332  141.8140  164.2361 C.3     1  UNL1        0.0897
      3 C         137.7379  140.4023  163.7292 C.3     1  UNL1        0.0897
      4 N         137.9274  140.1313  162.2661 N.3     1  UNL1       -0.2700
      5 C         138.1121  141.2721  161.3099 C.3     1  UNL1        0.0897
      6 C         138.1074  142.6838  161.8167 C.3     1  UNL1        0.0897
      7 C         137.9133  144.3666  163.7867 C.3     1  UNL1        0.0769
      8 C         139.1429  144.9370  164.4289 C.3     1  UNL1        0.0438
      9 C         142.4362  142.7430  164.7304 C.ar    1  UNL1        0.1477
     10 C         141.0895  143.3277  165.0380 C.ar    1  UNL1        0.0334
     11 C         140.4896  144.3523  164.1213 C.ar    1  UNL1       -0.0177
     12 C         141.2364  144.7923  162.8971 C.ar    1  UNL1       -0.0033
     13 C         142.5831  144.2076  162.5895 C.ar    1  UNL1        0.0130
     14 C         143.1830  143.1830  163.5062 C.ar    1  UNL1        0.1023
     15 C         144.5297  142.5983  163.1986 C.1     1  UNL1        0.1035
     16 N         145.8763  142.0136  162.8911 N.1     1  UNL1       -0.1907
     17 O         143.0361  141.7184  165.6471 O.3     1  UNL1       -0.4748
     18 C         141.9784  141.1208  167.9436 C.3     1  UNL1        0.0512
     19 C         142.9649  141.9083  167.1333 C.3     1  UNL1        0.2056
     20 C         137.9321  138.7195  161.7593 C.3     1  UNL1        0.0769
     21 C         139.2304  137.9877  161.5900 C.3     1  UNL1        0.0437
     22 C         140.2866  138.0787  162.6513 C.ar    1  UNL1       -0.0210
     23 C         139.9706  137.6733  164.0605 C.ar    1  UNL1       -0.0040
     24 C         141.0267  137.7643  165.1217 C.ar    1  UNL1        0.0059
     25 C         142.3988  138.2607  164.7738 C.ar    1  UNL1        0.0751
     26 C         142.7147  138.6661  163.3647 C.ar    1  UNL1        0.0272
     27 C         141.6586  138.5751  162.3034 C.ar    1  UNL1       -0.0047
     28 C         144.1456  139.1139  163.3210 C.3     1  UNL1        0.2356
     29 O         144.7141  138.9853  164.7031 O.3     1  UNL1       -0.4404
     30 C         143.6345  138.4579  165.6011 C.2     1  UNL1        0.3413
     31 O         143.7672  138.1771  167.0686 O.2     1  UNL1       -0.2449
@<TRIPOS>BOND
     1    18    19    1
     2    19    17    1
     3    17     9    1
     4     9    10   ar
     5    10    11   ar
     6    11     8    1
     7     8     7    1
     8     7     1    1
     9     1     2    1
    10     2     3    1
    11     3     4    1
    12     4    20    1
    13    20    21    1
    14    21    22    1
    15    22    23   ar
    16    23    24   ar
    17    24    25   ar
    18    25    26   ar
    19    26    27   ar
    20    26    28    1
    21    28    29    1
    22    29    30    1
    23    30    31    2
    24     4     5    1
    25     5     6    1
    26    11    12   ar
    27    12    13   ar
    28    13    14   ar
    29    14    15    1
    30    15    16    3
    31    14     9   ar
    32     6     1    1
    33    27    22   ar
    34    30    25    1
@<TRIPOS>MOLECULE
*****
 31 34 0 0 0
SMALL
GASTEIGER

@<TRIPOS>ATOM
      1 N         141.2273  138.2505  162.3155 N.3     1  UNL1       -0.2700
      2 C         141.0094  137.3413  163.4884 C.3     1  UNL1        0.0897
      3 C         140.0120  137.7086  164.5468 C.3     1  UNL1        0.0897
      4 N         139.2325  138.9850  164.4322 N.3     1  UNL1       -0.2700
      5 C         139.4504  139.8942  163.2593 C.3     1  UNL1        0.0897
      6 C         140.4478  139.5269  162.2009 C.3     1  UNL1        0.0897
      7 C         142.2247  137.8832  161.2570 C.3     1  UNL1        0.0769
      8 C         143.6026  138.4753  161.2871 C.3     1  UNL1        0.0438
      9 C         144.1355  142.1555  162.6734 C.ar    1  UNL1        0.1477
     10 C         143.8257  141.0242  161.7386 C.ar    1  UNL1        0.0334
     11 C         143.9124  139.6067  162.2219 C.ar    1  UNL1       -0.0177
     12 C         144.3089  139.3208  163.6400 C.ar    1  UNL1       -0.0033
     13 C         144.6187  140.4523  164.5748 C.ar    1  UNL1        0.0130
     14 C         144.5320  141.8696  164.0915 C.ar    1  UNL1        0.1023
     15 C         144.8419  143.0011  165.0263 C.1     1  UNL1        0.1035
     16 N         145.1517  144.1325  165.9611 N.1     1  UNL1       -0.1907
     17 O         144.0488  143.5730  162.1901 O.3     1  UNL1       -0.4748
     18 C         141.7546  144.1437  163.2674 C.3     1  UNL1        0.0512
     19 C         142.7185  144.2629  162.1244 C.3     1  UNL1        0.2056
     20 C         138.2350  139.3523  165.4907 C.3     1  UNL1        0.0769
     21 C         138.5656  139.1409  166.9385 C.3     1  UNL1        0.0437
     22 C         139.6633  139.9360  167.5810 C.ar    1  UNL1       -0.0210
     23 C         140.9182  140.2365  166.8163 C.ar    1  UNL1       -0.0040
     24 C         142.0158  141.0316  167.4589 C.ar    1  UNL1        0.0059
     25 C         141.8586  141.5262  168.8663 C.ar    1  UNL1        0.0751
     26 C         140.6037  141.2256  169.6310 C.ar    1  UNL1        0.0272
     27 C         139.5061  140.4305  168.9884 C.ar    1  UNL1       -0.0047
     28 C         140.7323  141.8409  170.9930 C.3     1  UNL1        0.2356
     29 O         142.0667  142.5217  171.0699 O.3     1  UNL1       -0.4404
     30 C         142.7628  142.3272  169.7556 C.2     1  UNL1        0.3413
     31 O         144.1240  142.8431  169.3939 O.2     1  UNL1       -0.2449
@<TRIPOS>BOND
     1    18    19    1
     2    19    17    1
     3    17     9    1
     4     9    10   ar
     5    10    11   ar
     6    11     8    1
     7     8     7    1
     8     7     1    1
     9     1     2    1
    10     2     3    1
    11     3     4    1
    12     4    20    1
    13    20    21    1
    14    21    22    1
    15    22    23   ar
    16    23    24   ar
    17    24    25   ar
    18    25    26   ar
    19    26    27   ar
    20    26    28    1
    21    28    29    1
    22    29    30    1
    23    30    31    2
    24     4     5    1
    25     5     6    1
    26    11    12   ar
    27    12    13   ar
    28    13    14   ar
    29    14    15    1
    30    15    16    3
    31    14     9   ar
    32     6     1    1
    33    27    22   ar
    34    30    25    1
@<TRIPOS>MOLECULE
*****
 31 34 0 0 0
SMALL
GASTEIGER

@<TRIPOS>ATOM
      1 N         139.1067  138.2880  162.7475 N.3     1  UNL1       -0.2700
      2 C         138.8881  138.4931  164.2172 C.3     1  UNL1        0.0897
      3 C         140.0565  138.4829  165.1577 C.3     1  UNL1        0.0897
      4 N         141.4435  138.2677  164.6286 N.3     1  UNL1       -0.2700
      5 C         141.6620  138.0627  163.1588 C.3     1  UNL1        0.0897
      6 C         140.4936  138.0728  162.2183 C.3     1  UNL1        0.0897
      7 C         137.9382  138.2981  161.8068 C.3     1  UNL1        0.0769
      8 C         137.8714  139.3135  160.7048 C.3     1  UNL1        0.0438
      9 C         138.0890  142.9603  162.2549 C.ar    1  UNL1        0.1477
     10 C         137.6402  141.5512  162.0045 C.ar    1  UNL1        0.0334
     11 C         138.3202  140.7226  160.9551 C.ar    1  UNL1       -0.0177
     12 C         139.4490  141.3034  160.1560 C.ar    1  UNL1       -0.0033
     13 C         139.8978  142.7127  160.4064 C.ar    1  UNL1        0.0130
     14 C         139.2178  143.5411  161.4558 C.ar    1  UNL1        0.1023
     15 C         139.6666  144.9504  161.7062 C.1     1  UNL1        0.1035
     16 N         140.1154  146.3596  161.9565 N.1     1  UNL1       -0.1907
     17 O         137.4090  143.7888  163.3043 O.3     1  UNL1       -0.4748
     18 C         138.9299  144.5885  165.2530 C.3     1  UNL1        0.0512
     19 C         137.8450  143.6908  164.7362 C.3     1  UNL1        0.2056
     20 C         142.6119  138.2576  165.5692 C.3     1  UNL1        0.0769
     21 C         143.2016  139.5515  166.0466 C.3     1  UNL1        0.0437
     22 C         142.4706  140.3797  167.0614 C.ar    1  UNL1       -0.0210
     23 C         142.2740  141.8486  166.8296 C.ar    1  UNL1       -0.0040
     24 C         141.5430  142.6767  167.8444 C.ar    1  UNL1        0.0059
     25 C         141.0085  142.0360  169.0909 C.ar    1  UNL1        0.0751
     26 C         141.2050  140.5671  169.3226 C.ar    1  UNL1        0.0272
     27 C         141.9361  139.7390  168.3079 C.ar    1  UNL1       -0.0047
     28 C         140.5709  140.2162  170.6359 C.3     1  UNL1        0.2356
     29 O         139.9824  141.4681  171.2158 O.3     1  UNL1       -0.4404
     30 C         140.2528  142.5929  170.2609 C.2     1  UNL1        0.3413
     31 O         139.8401  144.0233  170.4439 O.2     1  UNL1       -0.2449
@<TRIPOS>BOND
     1    18    19    1
     2    19    17    1
     3    17     9    1
     4     9    10   ar
     5    10    11   ar
     6    11     8    1
     7     8     7    1
     8     7     1    1
     9     1     2    1
    10     2     3    1
    11     3     4    1
    12     4    20    1
    13    20    21    1
    14    21    22    1
    15    22    23   ar
    16    23    24   ar
    17    24    25   ar
    18    25    26   ar
    19    26    27   ar
    20    26    28    1
    21    28    29    1
    22    29    30    1
    23    30    31    2
    24     4     5    1
    25     5     6    1
    26    11    12   ar
    27    12    13   ar
    28    13    14   ar
    29    14    15    1
    30    15    16    3
    31    14     9   ar
    32     6     1    1
    33    27    22   ar
    34    30    25    1
@<TRIPOS>MOLECULE
*****
 31 34 0 0 0
SMALL
GASTEIGER

@<TRIPOS>ATOM
      1 N         137.9927  140.7748  161.1751 N.3     1  UNL1       -0.2700
      2 C         138.9401  141.5713  160.3278 C.3     1  UNL1        0.0897
      3 C         139.2729  142.9853  160.7016 C.3     1  UNL1        0.0897
      4 N         138.6584  143.6028  161.9227 N.3     1  UNL1       -0.2700
      5 C         137.7111  142.8062  162.7700 C.3     1  UNL1        0.0897
      6 C         137.3782  141.3923  162.3962 C.3     1  UNL1        0.0897
      7 C         137.6598  139.3607  160.8013 C.3     1  UNL1        0.0769
      8 C         137.8177  138.2614  161.8095 C.3     1  UNL1        0.0438
      9 C         141.5931  138.0349  163.0113 C.ar    1  UNL1        0.1477
     10 C         140.3901  138.0642  162.1160 C.ar    1  UNL1        0.0334
     11 C         139.0207  138.2321  162.7049 C.ar    1  UNL1       -0.0177
     12 C         138.8546  138.3708  164.1892 C.ar    1  UNL1       -0.0033
     13 C         140.0577  138.3415  165.0846 C.ar    1  UNL1        0.0130
     14 C         141.4270  138.1735  164.4956 C.ar    1  UNL1        0.1023
     15 C         142.6301  138.1442  165.3910 C.1     1  UNL1        0.1035
     16 N         143.8332  138.1149  166.2864 N.1     1  UNL1       -0.1907
     17 O         142.9625  137.8669  162.4224 O.3     1  UNL1       -0.4748
     18 C         143.6576  140.3701  162.4465 C.3     1  UNL1        0.0512
     19 C         143.6462  139.0315  161.7697 C.3     1  UNL1        0.2056
     20 C         138.9914  145.0169  162.2965 C.3     1  UNL1        0.0769
     21 C         140.1687  145.3014  163.1812 C.3     1  UNL1        0.0437
     22 C         140.4818  144.3887  164.3298 C.ar    1  UNL1       -0.0210
     23 C         139.4859  144.2075  165.4367 C.ar    1  UNL1       -0.0040
     24 C         139.7990  143.2949  166.5852 C.ar    1  UNL1        0.0059
     25 C         141.1079  142.5635  166.6267 C.ar    1  UNL1        0.0751
     26 C         142.1038  142.7447  165.5198 C.ar    1  UNL1        0.0272
     27 C         141.7907  143.6573  164.3713 C.ar    1  UNL1       -0.0047
     28 C         143.3021  141.8980  165.8312 C.3     1  UNL1        0.2356
     29 O         143.0469  141.1934  167.1307 O.3     1  UNL1       -0.4404
     30 C         141.6908  141.6047  167.6223 C.2     1  UNL1        0.3413
     31 O         141.0330  141.1390  168.8874 O.2     1  UNL1       -0.2449
@<TRIPOS>BOND
     1    18    19    1
     2    19    17    1
     3    17     9    1
     4     9    10   ar
     5    10    11   ar
     6    11     8    1
     7     8     7    1
     8     7     1    1
     9     1     2    1
    10     2     3    1
    11     3     4    1
    12     4    20    1
    13    20    21    1
    14    21    22    1
    15    22    23   ar
    16    23    24   ar
    17    24    25   ar
    18    25    26   ar
    19    26    27   ar
    20    26    28    1
    21    28    29    1
    22    29    30    1
    23    30    31    2
    24     4     5    1
    25     5     6    1
    26    11    12   ar
    27    12    13   ar
    28    13    14   ar
    29    14    15    1
    30    15    16    3
    31    14     9   ar
    32     6     1    1
    33    27    22   ar
    34    30    25    1
@<TRIPOS>MOLECULE
*****
 31 34 0 0 0
SMALL
GASTEIGER

@<TRIPOS>ATOM
      1 N         141.6656  141.1320  161.5879 N.3     1  UNL1       -0.2700
      2 C         141.2286  142.5396  161.8661 C.3     1  UNL1        0.0897
      3 C         141.8543  143.3108  162.9903 C.3     1  UNL1        0.0897
      4 N         142.9171  142.6743  163.8362 N.3     1  UNL1       -0.2700
      5 C         143.3541  141.2667  163.5579 C.3     1  UNL1        0.0897
      6 C         142.7284  140.4955  162.4337 C.3     1  UNL1        0.0897
      7 C         141.0399  140.3608  160.4637 C.3     1  UNL1        0.0769
      8 C         139.9430  139.3779  160.7477 C.3     1  UNL1        0.0438
      9 C         138.4632  140.1404  164.3503 C.ar    1  UNL1        0.1477
     10 C         138.9440  140.3418  162.9438 C.ar    1  UNL1        0.0334
     11 C         139.4622  139.1765  162.1542 C.ar    1  UNL1       -0.0177
     12 C         139.4995  137.8097  162.7711 C.ar    1  UNL1       -0.0033
     13 C         139.0187  137.6083  164.1777 C.ar    1  UNL1        0.0130
     14 C         138.5005  138.7737  164.9672 C.ar    1  UNL1        0.1023
     15 C         138.0196  138.5723  166.3738 C.1     1  UNL1        0.1035
     16 N         137.5389  138.3710  167.7802 N.1     1  UNL1       -0.1907
     17 O         137.9450  141.3058  165.1399 O.3     1  UNL1       -0.4748
     18 C         138.6356  143.7905  164.8245 C.3     1  UNL1        0.0512
     19 C         137.7465  142.6347  164.4731 C.3     1  UNL1        0.2056
     20 C         143.5428  143.4456  164.9604 C.3     1  UNL1        0.0769
     21 C         143.9143  142.7461  166.2342 C.3     1  UNL1        0.0437
     22 C         142.8457  142.3352  167.2034 C.ar    1  UNL1       -0.0210
     23 C         141.5187  141.8533  166.6968 C.ar    1  UNL1       -0.0040
     24 C         140.4502  141.4425  167.6661 C.ar    1  UNL1        0.0059
     25 C         140.7087  141.5136  169.1419 C.ar    1  UNL1        0.0751
     26 C         142.0357  141.9956  169.6485 C.ar    1  UNL1        0.0272
     27 C         143.1042  142.4064  168.6793 C.ar    1  UNL1       -0.0047
     28 C         142.0009  141.9581  171.1476 C.3     1  UNL1        0.2356
     29 O         140.6524  141.4529  171.5676 O.3     1  UNL1       -0.4404
     30 C         139.8537  141.1782  170.3280 C.2     1  UNL1        0.3413
     31 O         138.4471  140.6592  170.2824 O.2     1  UNL1       -0.2449
@<TRIPOS>BOND
     1    18    19    1
     2    19    17    1
     3    17     9    1
     4     9    10   ar
     5    10    11   ar
     6    11     8    1
     7     8     7    1
     8     7     1    1
     9     1     2    1
    10     2     3    1
    11     3     4    1
    12     4    20    1
    13    20    21    1
    14    21    22    1
    15    22    23   ar
    16    23    24   ar
    17    24    25   ar
    18    25    26   ar
    19    26    27   ar
    20    26    28    1
    21    28    29    1
    22    29    30    1
    23    30    31    2
    24     4     5    1
    25     5     6    1
    26    11    12   ar
    27    12    13   ar
    28    13    14   ar
    29    14    15    1
    30    15    16    3
    31    14     9   ar
    32     6     1    1
    33    27    22   ar
    34    30    25    1
