@<TRIPOS>MOLECULE
*****
 37 40 0 0 0
SMALL
GASTEIGER

@<TRIPOS>ATOM
      1 C         142.1324  140.6781  161.2912 C.2     1  UNL1        0.1397
      2 C         142.8996  141.2536  160.1379 C.2     1  UNL1        0.1355
      3 N         143.1921  140.4071  158.9346 N.pl3   1  UNL1       -0.1998
      4 C         142.7174  138.9851  158.8846 C.2     1  UNL1        0.3442
      5 N         141.9502  138.4096  160.0379 N.2     1  UNL1       -0.0580
      6 C         141.6577  139.2561  161.2412 C.3     1  UNL1        0.2692
      7 H         143.6956  140.7849  158.1776 H       1  UNL1        0.2983
      8 C         140.8905  138.6805  162.3945 C.ar    1  UNL1        0.0371
      9 C         141.6206  138.0177  163.5248 C.ar    1  UNL1        0.0030
     10 C         140.8534  137.4421  164.6781 C.ar    1  UNL1        0.0295
     11 C         139.3561  137.5293  164.7012 C.ar    1  UNL1        0.1406
     12 F         138.5890  136.9538  165.8545 F       1  UNL1       -0.2042
     13 C         138.6260  138.1922  163.5709 C.ar    1  UNL1        0.0362
     14 C         139.3932  138.7678  162.4175 C.ar    1  UNL1        0.0372
     15 BR        138.6631  139.4306  161.2872 Br      1  UNL1       -0.0491
     16 C         143.0098  138.1387  157.6813 C.ar    1  UNL1        0.1927
     17 N         143.0410  136.6395  157.6444 N.ar    1  UNL1       -0.2351
     18 C         143.3729  136.2170  156.2439 C.ar    1  UNL1        0.0775
     19 C         143.5469  137.4551  155.4152 C.ar    1  UNL1        0.0524
     20 S         143.3225  138.6428  156.3035 S.2     1  UNL1       -0.0590
     21 C         143.5073  134.8044  155.7575 C.3     1  UNL1        0.1556
     22 C         143.4298  133.6656  156.7307 C.2     1  UNL1        0.3232
     23 O         142.3099  132.6723  156.6352 O.2     1  UNL1       -0.2497
     24 O         144.4723  133.5201  157.7994 O.3     1  UNL1       -0.4441
     25 C         145.2430  132.2393  157.9259 C.3     1  UNL1        0.2556
     26 C         141.8400  141.5246  162.4945 C.2     1  UNL1        0.3447
     27 O         140.5389  142.2646  162.5926 O.2     1  UNL1       -0.2450
     28 O         142.8485  141.6310  163.5997 O.3     1  UNL1       -0.4455
     29 C         145.4059  141.5140  163.1569 C.3     1  UNL1        0.0513
     30 C         144.1204  140.8387  163.5332 C.3     1  UNL1        0.2089
     31 C         143.3744  142.6757  160.1878 C.3     1  UNL1        0.1405
     32 N         142.6090  143.7475  159.4700 N.3     1  UNL1       -0.2617
     33 C         142.8988  144.0377  158.0271 C.3     1  UNL1        0.1050
     34 C         142.1334  145.1096  157.3093 C.3     1  UNL1        0.1595
     35 O         141.0783  145.8913  158.0343 O.3     1  UNL1       -0.3508
     36 C         140.7886  145.6011  159.4772 C.3     1  UNL1        0.1595
     37 C         141.5539  144.5293  160.1950 C.3     1  UNL1        0.1050
@<TRIPOS>BOND
     1    29    30    1
     2    30    28    1
     3    28    26    1
     4    26    27    2
     5    26     1    1
     6     1     2    2
     7     2    31    1
     8    31    32    1
     9    32    33    1
    10    33    34    1
    11    34    35    1
    12    35    36    1
    13    36    37    1
    14     2     3    1
    15     3     4    1
    16     4    16    1
    17    16    17   ar
    18    17    18   ar
    19    18    21    1
    20    21    22    1
    21    22    23    2
    22    22    24    1
    23    24    25    1
    24    18    19   ar
    25    19    20   ar
    26     4     5    2
    27     5     6    1
    28     6     8    1
    29     8     9   ar
    30     9    10   ar
    31    10    11   ar
    32    11    12    1
    33    11    13   ar
    34    13    14   ar
    35    14    15    1
    36     6     1    1
    37    14     8   ar
    38    37    32    1
    39    20    16   ar
    40     3     7    1
@<TRIPOS>MOLECULE
*****
 37 40 0 0 0
SMALL
GASTEIGER

@<TRIPOS>ATOM
      1 C         140.4464  141.1490  161.1819 C.2     1  UNL1        0.1397
      2 C         140.6882  140.3114  159.9613 C.2     1  UNL1        0.1355
      3 N         139.7695  140.4233  158.7808 N.pl3   1  UNL1       -0.1998
      4 C         138.6089  141.3728  158.8211 C.2     1  UNL1        0.3442
      5 N         138.3671  142.2103  160.0417 N.2     1  UNL1       -0.0580
      6 C         139.2859  142.0984  161.2221 C.3     1  UNL1        0.2692
      7 H         139.9282  139.8736  157.9797 H       1  UNL1        0.2983
      8 C         139.0440  142.9360  162.4428 C.ar    1  UNL1        0.0371
      9 C         138.1203  142.4455  163.5180 C.ar    1  UNL1        0.0030
     10 C         137.8784  143.2830  164.7386 C.ar    1  UNL1        0.0295
     11 C         138.5603  144.6112  164.8841 C.ar    1  UNL1        0.1406
     12 F         138.3185  145.4487  166.1048 F       1  UNL1       -0.2042
     13 C         139.4841  145.1017  163.8089 C.ar    1  UNL1        0.0362
     14 C         139.7259  144.2641  162.5882 C.ar    1  UNL1        0.0372
     15 BR        140.6497  144.7546  161.5130 Br      1  UNL1       -0.0491
     16 C         137.6902  141.4847  157.6407 C.ar    1  UNL1        0.1927
     17 N         136.6159  140.5080  157.2638 N.ar    1  UNL1       -0.2351
     18 C         135.9461  141.0126  156.0201 C.ar    1  UNL1        0.0775
     19 C         136.6065  142.3011  155.6282 C.ar    1  UNL1        0.0524
     20 S         137.6844  142.5929  156.6298 S.2     1  UNL1       -0.0590
     21 C         134.8147  140.3457  155.2955 C.3     1  UNL1        0.1556
     22 C         133.5872  139.9243  156.0475 C.2     1  UNL1        0.3232
     23 O         132.3621  140.7897  156.0288 O.2     1  UNL1       -0.2497
     24 O         133.5848  138.6375  156.8184 O.3     1  UNL1       -0.4441
     25 C         133.1399  138.6223  158.2509 C.3     1  UNL1        0.2556
     26 C         141.3652  141.0371  162.3623 C.2     1  UNL1        0.3447
     27 O         142.6603  141.7936  162.3791 O.2     1  UNL1       -0.2450
     28 O         140.9888  140.1687  163.5260 O.3     1  UNL1       -0.4455
     29 C         138.9053  138.8955  164.4138 C.3     1  UNL1        0.0513
     30 C         139.9518  139.0979  163.3583 C.3     1  UNL1        0.2089
     31 C         141.8488  139.3619  159.9210 C.3     1  UNL1        0.1405
     32 N         142.5391  139.0760  158.6204 N.3     1  UNL1       -0.2617
     33 C         142.4172  137.7210  157.9886 C.3     1  UNL1        0.1050
     34 C         143.1075  137.4350  156.6879 C.3     1  UNL1        0.1595
     35 O         143.9197  138.5041  156.0190 O.3     1  UNL1       -0.3508
     36 C         144.0416  139.8591  156.6508 C.3     1  UNL1        0.1595
     37 C         143.3513  140.1450  157.9514 C.3     1  UNL1        0.1050
@<TRIPOS>BOND
     1    29    30    1
     2    30    28    1
     3    28    26    1
     4    26    27    2
     5    26     1    1
     6     1     2    2
     7     2    31    1
     8    31    32    1
     9    32    33    1
    10    33    34    1
    11    34    35    1
    12    35    36    1
    13    36    37    1
    14     2     3    1
    15     3     4    1
    16     4    16    1
    17    16    17   ar
    18    17    18   ar
    19    18    21    1
    20    21    22    1
    21    22    23    2
    22    22    24    1
    23    24    25    1
    24    18    19   ar
    25    19    20   ar
    26     4     5    2
    27     5     6    1
    28     6     8    1
    29     8     9   ar
    30     9    10   ar
    31    10    11   ar
    32    11    12    1
    33    11    13   ar
    34    13    14   ar
    35    14    15    1
    36     6     1    1
    37    14     8   ar
    38    37    32    1
    39    20    16   ar
    40     3     7    1
@<TRIPOS>MOLECULE
*****
 37 40 0 0 0
SMALL
GASTEIGER

@<TRIPOS>ATOM
      1 C         140.6120  141.4984  160.7651 C.2     1  UNL1        0.1397
      2 C         140.8843  140.7396  159.5002 C.2     1  UNL1        0.1355
      3 N         139.8711  140.7371  158.3942 N.pl3   1  UNL1       -0.1998
      4 C         138.5855  141.4934  158.5530 C.2     1  UNL1        0.3442
      5 N         138.3132  142.2523  159.8179 N.2     1  UNL1       -0.0580
      6 C         139.3264  142.2548  160.9239 C.3     1  UNL1        0.2692
      7 H         140.0498  140.2390  157.5640 H       1  UNL1        0.2983
      8 C         139.0540  143.0137  162.1888 C.ar    1  UNL1        0.0371
      9 C         139.6303  144.3854  162.3794 C.ar    1  UNL1        0.0030
     10 C         139.3580  145.1443  163.6442 C.ar    1  UNL1        0.0295
     11 C         138.5093  144.5314  164.7186 C.ar    1  UNL1        0.1406
     12 F         138.2369  145.2903  165.9834 F       1  UNL1       -0.2042
     13 C         137.9330  143.1597  164.5281 C.ar    1  UNL1        0.0362
     14 C         138.2054  142.4008  163.2632 C.ar    1  UNL1        0.0372
     15 BR        137.6291  141.0291  163.0726 Br      1  UNL1       -0.0491
     16 C         137.5723  141.4909  157.4469 C.ar    1  UNL1        0.1927
     17 N         136.3951  140.5685  157.3317 N.ar    1  UNL1       -0.2351
     18 C         135.6536  140.9179  156.0754 C.ar    1  UNL1        0.0775
     19 C         136.3726  142.0563  155.4142 C.ar    1  UNL1        0.0524
     20 S         137.5584  142.4104  156.2619 S.2     1  UNL1       -0.0590
     21 C         134.4113  140.2467  155.5693 C.3     1  UNL1        0.1556
     22 C         133.3774  139.7539  156.5379 C.2     1  UNL1        0.3232
     23 O         133.5114  138.3905  157.1488 O.2     1  UNL1       -0.2497
     24 O         132.2094  140.6245  156.8955 O.3     1  UNL1       -0.4441
     25 C         130.9374  140.5347  156.1055 C.3     1  UNL1        0.2556
     26 C         141.6252  141.5010  161.8712 C.2     1  UNL1        0.3447
     27 O         141.5460  140.4757  162.9632 O.2     1  UNL1       -0.2450
     28 O         142.7176  142.5287  161.8852 O.3     1  UNL1       -0.4455
     29 C         143.2564  144.6266  163.3201 C.3     1  UNL1        0.0513
     30 C         143.1595  143.1359  163.1837 C.3     1  UNL1        0.2089
     31 C         142.1699  139.9832  159.3414 C.3     1  UNL1        0.1405
     32 N         143.2308  140.4942  158.4122 N.3     1  UNL1       -0.2617
     33 C         144.0012  141.7328  158.7623 C.3     1  UNL1        0.1050
     34 C         145.0622  142.2438  157.8331 C.3     1  UNL1        0.1595
     35 O         145.3527  141.5162  156.5539 O.3     1  UNL1       -0.3508
     36 C         144.5823  140.2776  156.2039 C.3     1  UNL1        0.1595
     37 C         143.5214  139.7666  157.1331 C.3     1  UNL1        0.1050
@<TRIPOS>BOND
     1    29    30    1
     2    30    28    1
     3    28    26    1
     4    26    27    2
     5    26     1    1
     6     1     2    2
     7     2    31    1
     8    31    32    1
     9    32    33    1
    10    33    34    1
    11    34    35    1
    12    35    36    1
    13    36    37    1
    14     2     3    1
    15     3     4    1
    16     4    16    1
    17    16    17   ar
    18    17    18   ar
    19    18    21    1
    20    21    22    1
    21    22    23    2
    22    22    24    1
    23    24    25    1
    24    18    19   ar
    25    19    20   ar
    26     4     5    2
    27     5     6    1
    28     6     8    1
    29     8     9   ar
    30     9    10   ar
    31    10    11   ar
    32    11    12    1
    33    11    13   ar
    34    13    14   ar
    35    14    15    1
    36     6     1    1
    37    14     8   ar
    38    37    32    1
    39    20    16   ar
    40     3     7    1
@<TRIPOS>MOLECULE
*****
 37 40 0 0 0
SMALL
GASTEIGER

@<TRIPOS>ATOM
      1 C         140.5247  141.4591  160.6853 C.2     1  UNL1        0.1397
      2 C         140.7623  140.6906  159.4193 C.2     1  UNL1        0.1355
      3 N         139.7599  140.7522  158.3051 N.pl3   1  UNL1       -0.1998
      4 C         138.5198  141.5823  158.4570 C.2     1  UNL1        0.3442
      5 N         138.2822  142.3509  159.7230 N.2     1  UNL1       -0.0580
      6 C         139.2846  142.2893  160.8372 C.3     1  UNL1        0.2692
      7 H         139.9158  140.2478  157.4742 H       1  UNL1        0.2983
      8 C         139.0470  143.0579  162.1033 C.ar    1  UNL1        0.0371
      9 C         139.6764  144.4063  162.2914 C.ar    1  UNL1        0.0030
     10 C         139.4388  145.1749  163.5574 C.ar    1  UNL1        0.0295
     11 C         138.5717  144.5950  164.6353 C.ar    1  UNL1        0.1406
     12 F         138.3340  145.3636  165.9013 F       1  UNL1       -0.2042
     13 C         137.9422  143.2465  164.4472 C.ar    1  UNL1        0.0362
     14 C         138.1799  142.4779  163.1811 C.ar    1  UNL1        0.0372
     15 BR        137.5505  141.1294  162.9930 Br      1  UNL1       -0.0491
     16 C         137.5174  141.6440  157.3429 C.ar    1  UNL1        0.1927
     17 N         136.4280  140.6467  157.0808 N.ar    1  UNL1       -0.2351
     18 C         135.6657  141.1000  155.8711 C.ar    1  UNL1        0.0775
     19 C         136.2839  142.3775  155.3855 C.ar    1  UNL1        0.0524
     20 S         137.4283  142.7136  156.2951 S.2     1  UNL1       -0.0590
     21 C         134.4913  140.3990  155.2552 C.3     1  UNL1        0.1556
     22 C         133.3788  139.8936  156.1252 C.2     1  UNL1        0.3232
     23 O         132.0946  140.6625  156.2229 O.2     1  UNL1       -0.2497
     24 O         133.5505  138.6192  156.8976 O.3     1  UNL1       -0.4441
     25 C         133.1760  138.5658  158.3492 C.3     1  UNL1        0.2556
     26 C         141.5271  141.3975  161.7995 C.2     1  UNL1        0.3447
     27 O         142.6758  142.3616  161.8290 O.2     1  UNL1       -0.2450
     28 O         141.3808  140.3718  162.8841 O.3     1  UNL1       -0.4455
     29 C         142.2534  137.9274  162.7682 C.3     1  UNL1        0.0513
     30 C         142.4712  139.3692  163.1202 C.3     1  UNL1        0.2089
     31 C         142.0024  139.8604  159.2674 C.3     1  UNL1        0.1405
     32 N         143.0797  140.2886  158.3155 N.3     1  UNL1       -0.2617
     33 C         143.9305  141.4823  158.6335 C.3     1  UNL1        0.1050
     34 C         145.0078  141.9105  157.6816 C.3     1  UNL1        0.1595
     35 O         145.2342  141.1450  156.4116 O.3     1  UNL1       -0.3508
     36 C         144.3833  139.9513  156.0936 C.3     1  UNL1        0.1595
     37 C         143.3061  139.5231  157.0455 C.3     1  UNL1        0.1050
@<TRIPOS>BOND
     1    29    30    1
     2    30    28    1
     3    28    26    1
     4    26    27    2
     5    26     1    1
     6     1     2    2
     7     2    31    1
     8    31    32    1
     9    32    33    1
    10    33    34    1
    11    34    35    1
    12    35    36    1
    13    36    37    1
    14     2     3    1
    15     3     4    1
    16     4    16    1
    17    16    17   ar
    18    17    18   ar
    19    18    21    1
    20    21    22    1
    21    22    23    2
    22    22    24    1
    23    24    25    1
    24    18    19   ar
    25    19    20   ar
    26     4     5    2
    27     5     6    1
    28     6     8    1
    29     8     9   ar
    30     9    10   ar
    31    10    11   ar
    32    11    12    1
    33    11    13   ar
    34    13    14   ar
    35    14    15    1
    36     6     1    1
    37    14     8   ar
    38    37    32    1
    39    20    16   ar
    40     3     7    1
@<TRIPOS>MOLECULE
*****
 37 40 0 0 0
SMALL
GASTEIGER

@<TRIPOS>ATOM
      1 C         141.6057  141.3981  161.6164 C.2     1  UNL1        0.1397
      2 C         142.3104  141.6956  160.3262 C.2     1  UNL1        0.1355
      3 N         142.3976  140.6447  159.2594 N.pl3   1  UNL1       -0.1998
      4 C         141.7799  139.2962  159.4829 C.2     1  UNL1        0.3442
      5 N         141.0752  138.9986  160.7731 N.2     1  UNL1       -0.0580
      6 C         140.9880  140.0495  161.8398 C.3     1  UNL1        0.2692
      7 H         142.8602  140.8401  158.4126 H       1  UNL1        0.2983
      8 C         140.2832  139.7519  163.1301 C.ar    1  UNL1        0.0371
      9 C         138.8287  140.0844  163.2842 C.ar    1  UNL1        0.0030
     10 C         138.1239  139.7868  164.5743 C.ar    1  UNL1        0.0295
     11 C         138.8736  139.1566  165.7105 C.ar    1  UNL1        0.1406
     12 F         138.1688  138.8590  167.0007 F       1  UNL1       -0.2042
     13 C         140.3281  138.8241  165.5565 C.ar    1  UNL1        0.0362
     14 C         141.0329  139.1217  164.2662 C.ar    1  UNL1        0.0372
     15 BR        142.4875  138.7892  164.1121 Br      1  UNL1       -0.0491
     16 C         141.8671  138.2453  158.4161 C.ar    1  UNL1        0.1927
     17 N         142.9866  137.2635  158.2350 N.ar    1  UNL1       -0.2351
     18 C         142.6614  136.4030  157.0501 C.ar    1  UNL1        0.0775
     19 C         141.3410  136.8531  156.4989 C.ar    1  UNL1        0.0524
     20 S         140.8501  137.9916  157.3431 S.2     1  UNL1       -0.0590
     21 C         143.5081  135.2883  156.5111 C.3     1  UNL1        0.1556
     22 C         143.4356  133.9243  157.1311 C.2     1  UNL1        0.3232
     23 O         142.3278  132.9864  156.7529 O.2     1  UNL1       -0.2497
     24 O         144.4710  133.4983  158.1294 O.3     1  UNL1       -0.4441
     25 C         145.2440  132.2309  157.9137 C.3     1  UNL1        0.2556
     26 C         141.5185  142.4490  162.6831 C.2     1  UNL1        0.3447
     27 O         140.2770  143.2798  162.8178 O.2     1  UNL1       -0.2450
     28 O         142.6729  142.6691  163.6152 O.3     1  UNL1       -0.4455
     29 C         143.7319  145.0351  163.7901 C.3     1  UNL1        0.0513
     30 C         142.8176  143.9776  164.3340 C.3     1  UNL1        0.2089
     31 C         142.9281  143.0442  160.1026 C.3     1  UNL1        0.1405
     32 N         142.2551  144.0375  159.2024 N.3     1  UNL1       -0.2617
     33 C         142.7583  144.2440  157.8044 C.3     1  UNL1        0.1050
     34 C         142.0852  145.2373  156.9042 C.3     1  UNL1        0.1595
     35 O         140.9091  146.0241  157.4019 O.3     1  UNL1       -0.3508
     36 C         140.4060  145.8176  158.7998 C.3     1  UNL1        0.1595
     37 C         141.0790  144.8244  159.7001 C.3     1  UNL1        0.1050
@<TRIPOS>BOND
     1    29    30    1
     2    30    28    1
     3    28    26    1
     4    26    27    2
     5    26     1    1
     6     1     2    2
     7     2    31    1
     8    31    32    1
     9    32    33    1
    10    33    34    1
    11    34    35    1
    12    35    36    1
    13    36    37    1
    14     2     3    1
    15     3     4    1
    16     4    16    1
    17    16    17   ar
    18    17    18   ar
    19    18    21    1
    20    21    22    1
    21    22    23    2
    22    22    24    1
    23    24    25    1
    24    18    19   ar
    25    19    20   ar
    26     4     5    2
    27     5     6    1
    28     6     8    1
    29     8     9   ar
    30     9    10   ar
    31    10    11   ar
    32    11    12    1
    33    11    13   ar
    34    13    14   ar
    35    14    15    1
    36     6     1    1
    37    14     8   ar
    38    37    32    1
    39    20    16   ar
    40     3     7    1
@<TRIPOS>MOLECULE
*****
 37 40 0 0 0
SMALL
GASTEIGER

@<TRIPOS>ATOM
      1 C         139.3780  141.1050  160.9631 C.2     1  UNL1        0.1397
      2 C         139.4835  140.4213  159.6321 C.2     1  UNL1        0.1355
      3 N         139.3036  141.2087  158.3681 N.pl3   1  UNL1       -0.1998
      4 C         139.0183  142.6798  158.4351 C.2     1  UNL1        0.3442
      5 N         138.9128  143.3635  159.7660 N.2     1  UNL1       -0.0580
      6 C         139.0927  142.5761  161.0300 C.3     1  UNL1        0.2692
      7 H         139.3729  140.7600  157.4946 H       1  UNL1        0.2983
      8 C         138.9872  143.2598  162.3610 C.ar    1  UNL1        0.0371
      9 C         137.6775  143.2802  163.0920 C.ar    1  UNL1        0.0030
     10 C         137.5720  143.9639  164.4229 C.ar    1  UNL1        0.0295
     11 C         138.7762  144.6273  165.0229 C.ar    1  UNL1        0.1406
     12 F         138.6706  145.3110  166.3538 F       1  UNL1       -0.2042
     13 C         140.0858  144.6069  164.2919 C.ar    1  UNL1        0.0362
     14 C         140.1913  143.9232  162.9609 C.ar    1  UNL1        0.0372
     15 BR        141.5010  143.9028  162.2299 Br      1  UNL1       -0.0491
     16 C         138.8384  143.4672  157.1711 C.ar    1  UNL1        0.1927
     17 N         139.6097  144.6921  156.7781 N.ar    1  UNL1       -0.2351
     18 C         139.1037  145.1499  155.4423 C.ar    1  UNL1        0.0775
     19 C         138.0196  144.2078  155.0097 C.ar    1  UNL1        0.0524
     20 S         137.8556  143.1678  156.0781 S.2     1  UNL1       -0.0590
     21 C         139.5954  146.3406  154.6740 C.3     1  UNL1        0.1556
     22 C         139.3989  147.7219  155.2248 C.2     1  UNL1        0.3232
     23 O         138.8112  147.9074  156.5924 O.2     1  UNL1       -0.2497
     24 O         139.7902  148.9177  154.4081 O.3     1  UNL1       -0.4441
     25 C         139.2261  150.2681  154.7376 C.3     1  UNL1        0.2556
     26 C         139.5579  140.3176  162.2271 C.2     1  UNL1        0.3447
     27 O         140.9204  140.1838  162.8398 O.2     1  UNL1       -0.2450
     28 O         138.3752  139.6641  162.8783 O.3     1  UNL1       -0.4455
     29 C         138.2267  139.8643  165.4644 C.3     1  UNL1        0.0513
     30 C         138.5136  139.0481  164.2389 C.3     1  UNL1        0.2089
     31 C         139.7689  138.9502  159.5651 C.3     1  UNL1        0.1405
     32 N         140.5557  138.3904  158.4174 N.3     1  UNL1       -0.2617
     33 C         142.0485  138.5345  158.3903 C.3     1  UNL1        0.1050
     34 C         142.8354  137.9746  157.2425 C.3     1  UNL1        0.1595
     35 O         142.1294  137.2706  156.1218 O.3     1  UNL1       -0.3508
     36 C         140.6366  137.1265  156.1489 C.3     1  UNL1        0.1595
     37 C         139.8497  137.6863  157.2966 C.3     1  UNL1        0.1050
@<TRIPOS>BOND
     1    29    30    1
     2    30    28    1
     3    28    26    1
     4    26    27    2
     5    26     1    1
     6     1     2    2
     7     2    31    1
     8    31    32    1
     9    32    33    1
    10    33    34    1
    11    34    35    1
    12    35    36    1
    13    36    37    1
    14     2     3    1
    15     3     4    1
    16     4    16    1
    17    16    17   ar
    18    17    18   ar
    19    18    21    1
    20    21    22    1
    21    22    23    2
    22    22    24    1
    23    24    25    1
    24    18    19   ar
    25    19    20   ar
    26     4     5    2
    27     5     6    1
    28     6     8    1
    29     8     9   ar
    30     9    10   ar
    31    10    11   ar
    32    11    12    1
    33    11    13   ar
    34    13    14   ar
    35    14    15    1
    36     6     1    1
    37    14     8   ar
    38    37    32    1
    39    20    16   ar
    40     3     7    1
@<TRIPOS>MOLECULE
*****
 37 40 0 0 0
SMALL
GASTEIGER

@<TRIPOS>ATOM
      1 C         141.2294  142.1117  162.0992 C.2     1  UNL1        0.1397
      2 C         141.7662  142.4548  160.7412 C.2     1  UNL1        0.1355
      3 N         141.8375  141.4022  159.6750 N.pl3   1  UNL1       -0.1998
      4 C         141.3721  140.0064  159.9667 C.2     1  UNL1        0.3442
      5 N         140.8353  139.6633  161.3246 N.2     1  UNL1       -0.0580
      6 C         140.7640  140.7159  162.3909 C.3     1  UNL1        0.2692
      7 H         142.1899  141.6274  158.7837 H       1  UNL1        0.2983
      8 C         140.2271  140.3727  163.7489 C.ar    1  UNL1        0.0371
      9 C         141.1638  139.9435  164.8391 C.ar    1  UNL1        0.0030
     10 C         140.6270  139.6003  166.1970 C.ar    1  UNL1        0.0295
     11 C         139.1536  139.6863  166.4648 C.ar    1  UNL1        0.1406
     12 F         138.6168  139.3431  167.8228 F       1  UNL1       -0.2042
     13 C         138.2169  140.1154  165.3746 C.ar    1  UNL1        0.0362
     14 C         138.7538  140.4586  164.0166 C.ar    1  UNL1        0.0372
     15 BR        137.8171  140.8877  162.9264 Br      1  UNL1       -0.0491
     16 C         141.4434  138.9538  158.9004 C.ar    1  UNL1        0.1927
     17 N         142.5581  137.9689  158.7069 N.ar    1  UNL1       -0.2351
     18 C         142.2162  137.1076  157.5274 C.ar    1  UNL1        0.0775
     19 C         140.8902  137.5602  156.9918 C.ar    1  UNL1        0.0524
     20 S         140.4126  138.7012  157.8404 S.2     1  UNL1       -0.0590
     21 C         143.0534  135.9900  156.9796 C.3     1  UNL1        0.1556
     22 C         143.7453  136.1494  155.6583 C.2     1  UNL1        0.3232
     23 O         144.8607  137.1415  155.5106 O.2     1  UNL1       -0.2497
     24 O         143.3220  135.3167  154.4847 O.3     1  UNL1       -0.4441
     25 C         142.5490  134.0498  154.7039 C.3     1  UNL1        0.2556
     26 C         141.1581  143.1643  163.1654 C.2     1  UNL1        0.3447
     27 O         142.3093  143.3568  164.1075 O.2     1  UNL1       -0.2450
     28 O         139.9355  144.0243  163.2896 O.3     1  UNL1       -0.4455
     29 C         137.8750  144.2349  164.8582 C.3     1  UNL1        0.0513
     30 C         139.3574  144.3151  164.6429 C.3     1  UNL1        0.2089
     31 C         142.2317  143.8506  160.4495 C.3     1  UNL1        0.1405
     32 N         141.8288  144.5238  159.1710 N.3     1  UNL1       -0.2617
     33 C         142.6570  144.3411  157.9338 C.3     1  UNL1        0.1050
     34 C         142.2540  145.0143  156.6553 C.3     1  UNL1        0.1595
     35 O         141.0228  145.8701  156.6141 O.3     1  UNL1       -0.3508
     36 C         140.1946  146.0528  157.8513 C.3     1  UNL1        0.1595
     37 C         140.5975  145.3797  159.1297 C.3     1  UNL1        0.1050
@<TRIPOS>BOND
     1    29    30    1
     2    30    28    1
     3    28    26    1
     4    26    27    2
     5    26     1    1
     6     1     2    2
     7     2    31    1
     8    31    32    1
     9    32    33    1
    10    33    34    1
    11    34    35    1
    12    35    36    1
    13    36    37    1
    14     2     3    1
    15     3     4    1
    16     4    16    1
    17    16    17   ar
    18    17    18   ar
    19    18    21    1
    20    21    22    1
    21    22    23    2
    22    22    24    1
    23    24    25    1
    24    18    19   ar
    25    19    20   ar
    26     4     5    2
    27     5     6    1
    28     6     8    1
    29     8     9   ar
    30     9    10   ar
    31    10    11   ar
    32    11    12    1
    33    11    13   ar
    34    13    14   ar
    35    14    15    1
    36     6     1    1
    37    14     8   ar
    38    37    32    1
    39    20    16   ar
    40     3     7    1
@<TRIPOS>MOLECULE
*****
 37 40 0 0 0
SMALL
GASTEIGER

@<TRIPOS>ATOM
      1 C         142.1973  141.1518  161.5063 C.2     1  UNL1        0.1397
      2 C         141.8044  141.6002  160.1300 C.2     1  UNL1        0.1355
      3 N         141.7245  140.6045  159.0110 N.pl3   1  UNL1       -0.1998
      4 C         142.0375  139.1603  159.2683 C.2     1  UNL1        0.3442
      5 N         142.4305  138.7119  160.6447 N.2     1  UNL1       -0.0580
      6 C         142.5103  139.7076  161.7637 C.3     1  UNL1        0.2692
      7 H         141.4666  140.8989  158.1076 H       1  UNL1        0.2983
      8 C         142.9033  139.2590  163.1401 C.ar    1  UNL1        0.0371
      9 C         144.3260  139.3950  163.5956 C.ar    1  UNL1        0.0030
     10 C         144.7190  138.9465  164.9720 C.ar    1  UNL1        0.0295
     11 C         143.6892  138.3620  165.8929 C.ar    1  UNL1        0.1406
     12 F         144.0822  137.9135  167.2692 F       1  UNL1       -0.2042
     13 C         142.2665  138.2260  165.4374 C.ar    1  UNL1        0.0362
     14 C         141.8736  138.6746  164.0610 C.ar    1  UNL1        0.0372
     15 BR        140.4509  138.5386  163.6055 Br      1  UNL1       -0.0491
     16 C         141.9576  138.1646  158.1493 C.ar    1  UNL1        0.1927
     17 N         143.0674  137.2681  157.6859 N.ar    1  UNL1       -0.2351
     18 C         142.5496  136.4400  156.5475 C.ar    1  UNL1        0.0775
     19 C         141.1198  136.8247  156.3072 C.ar    1  UNL1        0.0524
     20 S         140.7540  137.8906  157.2972 S.2     1  UNL1       -0.0590
     21 C         143.3254  135.4083  155.7834 C.3     1  UNL1        0.1556
     22 C         143.2367  133.9626  156.1731 C.2     1  UNL1        0.3232
     23 O         141.8955  133.3124  156.3424 O.2     1  UNL1       -0.2497
     24 O         144.4891  133.1670  156.3935 O.3     1  UNL1       -0.4441
     25 C         144.7388  132.5138  157.7207 C.3     1  UNL1        0.2556
     26 C         142.2772  142.1475  162.6253 C.2     1  UNL1        0.3447
     27 O         141.1891  142.2062  163.6561 O.2     1  UNL1       -0.2450
     28 O         143.4452  143.0844  162.7136 O.3     1  UNL1       -0.4455
     29 C         144.3715  142.9276  165.1359 C.3     1  UNL1        0.0513
     30 C         143.7842  143.7396  164.0197 C.3     1  UNL1        0.2089
     31 C         141.4913  143.0445  159.8726 C.3     1  UNL1        0.1405
     32 N         140.4375  143.7395  160.6828 N.3     1  UNL1       -0.2617
     33 C         139.1804  143.0130  161.0593 C.3     1  UNL1        0.1050
     34 C         138.1266  143.7080  161.8696 C.3     1  UNL1        0.1595
     35 O         138.3299  145.1295  162.3033 O.3     1  UNL1       -0.3508
     36 C         139.5871  145.8559  161.9267 C.3     1  UNL1        0.1595
     37 C         140.6409  145.1610  161.1165 C.3     1  UNL1        0.1050
@<TRIPOS>BOND
     1    29    30    1
     2    30    28    1
     3    28    26    1
     4    26    27    2
     5    26     1    1
     6     1     2    2
     7     2    31    1
     8    31    32    1
     9    32    33    1
    10    33    34    1
    11    34    35    1
    12    35    36    1
    13    36    37    1
    14     2     3    1
    15     3     4    1
    16     4    16    1
    17    16    17   ar
    18    17    18   ar
    19    18    21    1
    20    21    22    1
    21    22    23    2
    22    22    24    1
    23    24    25    1
    24    18    19   ar
    25    19    20   ar
    26     4     5    2
    27     5     6    1
    28     6     8    1
    29     8     9   ar
    30     9    10   ar
    31    10    11   ar
    32    11    12    1
    33    11    13   ar
    34    13    14   ar
    35    14    15    1
    36     6     1    1
    37    14     8   ar
    38    37    32    1
    39    20    16   ar
    40     3     7    1
@<TRIPOS>MOLECULE
*****
 37 40 0 0 0
SMALL
GASTEIGER

@<TRIPOS>ATOM
      1 C         141.8637  142.8114  160.9938 C.2     1  UNL1        0.1397
      2 C         142.7504  142.6227  159.7988 C.2     1  UNL1        0.1355
      3 N         142.4833  143.3902  158.5380 N.pl3   1  UNL1       -0.1998
      4 C         141.3295  144.3464  158.4722 C.2     1  UNL1        0.3442
      5 N         140.4428  144.5351  159.6672 N.2     1  UNL1       -0.0580
      6 C         140.7099  143.7676  160.9280 C.3     1  UNL1        0.2692
      7 H         143.0654  143.2663  157.7537 H       1  UNL1        0.2983
      8 C         139.8231  143.9563  162.1230 C.ar    1  UNL1        0.0371
      9 C         140.2202  144.9129  163.2080 C.ar    1  UNL1        0.0030
     10 C         139.3335  145.1016  164.4030 C.ar    1  UNL1        0.0295
     11 C         138.0495  144.3338  164.5130 C.ar    1  UNL1        0.1406
     12 F         137.1628  144.5226  165.7080 F       1  UNL1       -0.2042
     13 C         137.6524  143.3772  163.4280 C.ar    1  UNL1        0.0362
     14 C         138.5392  143.1885  162.2330 C.ar    1  UNL1        0.0372
     15 BR        138.1421  142.2320  161.1479 Br      1  UNL1       -0.0491
     16 C         141.0625  145.1139  157.2114 C.ar    1  UNL1        0.1927
     17 N         139.8835  146.0050  156.9546 N.ar    1  UNL1       -0.2351
     18 C         140.0199  146.5669  155.5705 C.ar    1  UNL1        0.0775
     19 C         141.2831  146.0230  154.9719 C.ar    1  UNL1        0.0524
     20 S         141.9275  145.1251  155.9860 S.2     1  UNL1       -0.0590
     21 C         139.0613  147.5075  154.9024 C.3     1  UNL1        0.1556
     22 C         139.3187  148.9850  154.9293 C.2     1  UNL1        0.3232
     23 O         140.5070  149.5524  154.2110 O.2     1  UNL1       -0.2497
     24 O         138.3879  149.8950  155.6746 O.3     1  UNL1       -0.4441
     25 C         138.2883  149.8056  157.1687 C.3     1  UNL1        0.2556
     26 C         142.1308  142.0439  162.2546 C.2     1  UNL1        0.3447
     27 O         143.2027  142.5018  163.1986 O.2     1  UNL1       -0.2450
     28 O         141.3259  140.8184  162.5714 O.3     1  UNL1       -0.4455
     29 C         140.3511  141.3445  164.9215 C.3     1  UNL1        0.0513
     30 C         141.0927  140.4227  163.9993 C.3     1  UNL1        0.2089
     31 C         143.9043  141.6664  159.8645 C.3     1  UNL1        0.1405
     32 N         143.6514  140.1897  159.9359 N.3     1  UNL1       -0.2617
     33 C         142.8871  139.5059  158.8412 C.3     1  UNL1        0.1050
     34 C         142.6342  138.0290  158.9126 C.3     1  UNL1        0.1595
     35 O         143.1456  137.2360  160.0786 O.3     1  UNL1       -0.3508
     36 C         143.9099  137.9198  161.1732 C.3     1  UNL1        0.1595
     37 C         144.1628  139.3966  161.1019 C.3     1  UNL1        0.1050
@<TRIPOS>BOND
     1    29    30    1
     2    30    28    1
     3    28    26    1
     4    26    27    2
     5    26     1    1
     6     1     2    2
     7     2    31    1
     8    31    32    1
     9    32    33    1
    10    33    34    1
    11    34    35    1
    12    35    36    1
    13    36    37    1
    14     2     3    1
    15     3     4    1
    16     4    16    1
    17    16    17   ar
    18    17    18   ar
    19    18    21    1
    20    21    22    1
    21    22    23    2
    22    22    24    1
    23    24    25    1
    24    18    19   ar
    25    19    20   ar
    26     4     5    2
    27     5     6    1
    28     6     8    1
    29     8     9   ar
    30     9    10   ar
    31    10    11   ar
    32    11    12    1
    33    11    13   ar
    34    13    14   ar
    35    14    15    1
    36     6     1    1
    37    14     8   ar
    38    37    32    1
    39    20    16   ar
    40     3     7    1
