@<TRIPOS>MOLECULE
*****
 40 44 0 0 0
SMALL
GASTEIGER

@<TRIPOS>ATOM
      1 C         141.3720  143.2184  162.9251 C.2     1  UNL1        0.1077
      2 C         141.2194  142.8330  161.4835 C.2     1  UNL1        0.0757
      3 N         141.3731  141.4793  160.8560 N.am    1  UNL1       -0.2534
      4 C         141.1535  141.4204  159.3733 C.2     1  UNL1        0.2528
      5 O         140.8044  142.6677  158.6168 O.2     1  UNL1       -0.2696
      6 C         141.7174  140.1766  161.5151 C.3     1  UNL1        0.1025
      7 C         141.9930  139.9059  162.9645 C.3     1  UNL1        0.0390
      8 C         142.3370  139.0327  164.1347 C.3     1  UNL1        0.0061
      9 C         142.1468  138.5521  162.3371 C.3     1  UNL1        0.0061
     10 C         141.9924  140.8711  164.1128 C.2     1  UNL1       -0.0022
     11 C         141.7160  142.3453  164.0952 C.2     1  UNL1        0.0845
     12 N         141.8395  142.8567  165.4999 N.2     1  UNL1       -0.2493
     13 C         142.1922  141.6987  166.3856 C.2     1  UNL1        0.0654
     14 C         142.4395  141.6031  167.8620 C.3     1  UNL1        0.1022
     15 C         142.7813  140.2803  168.4810 C.2     1  UNL1        0.1236
     16 F         143.0286  140.1847  169.9575 F       1  UNL1       -0.2085
     17 C         142.8758  139.0531  167.6238 C.2     1  UNL1        0.0256
     18 C         142.6285  139.1486  166.1474 C.2     1  UNL1        0.0029
     19 C         142.2867  140.4714  165.5283 C.2     1  UNL1        0.0115
     20 C         141.2831  140.1143  158.6472 C.ar    1  UNL1        0.0541
     21 C         142.6310  139.6404  158.1908 C.ar    1  UNL1        0.0076
     22 C         142.7606  138.3342  157.4647 C.ar    1  UNL1        0.0370
     23 C         141.5421  137.5021  157.1950 C.ar    1  UNL1        0.1386
     24 C         140.1942  137.9760  157.6513 C.ar    1  UNL1        0.0370
     25 C         140.0646  139.2821  158.3775 C.ar    1  UNL1        0.0076
     26 O         141.6717  136.1959  156.4689 O.3     1  UNL1       -0.4740
     27 C         142.9729  135.4501  156.4932 C.3     1  UNL1        0.2226
     28 C         143.0777  134.1486  157.2314 C.3     1  UNL1        0.1202
     29 N         142.6147  132.8784  156.5816 N.3     1  UNL1       -0.2653
     30 C         143.2181  131.5660  156.9859 C.3     1  UNL1        0.1047
     31 C         142.7552  130.2957  156.3362 C.3     1  UNL1        0.1595
     32 O         141.6888  130.3380  155.2821 O.3     1  UNL1       -0.3508
     33 C         141.0854  131.6504  154.8778 C.3     1  UNL1        0.1595
     34 C         141.5484  132.9206  155.5275 C.3     1  UNL1        0.1047
     35 C         141.1514  144.6688  163.2379 C.2     1  UNL1        0.3438
     36 O         142.3200  145.5533  163.5572 O.2     1  UNL1       -0.2448
     37 O         139.7622  145.2345  163.2314 O.3     1  UNL1       -0.4491
     38 C         138.5478  144.8835  165.5012 C.3     1  UNL1        0.0473
     39 C         138.6815  144.5785  164.0386 C.3     1  UNL1        0.1694
     40 C         137.7344  143.6175  163.3833 C.3     1  UNL1        0.0473
@<TRIPOS>BOND
     1    38    39    1
     2    39    40    1
     3    39    37    1
     4    37    35    1
     5    35    36    2
     6    35     1    1
     7     1     2    2
     8     2     3    1
     9     3     4   am
    10     4     5    2
    11     4    20    1
    12    20    21   ar
    13    21    22   ar
    14    22    23   ar
    15    23    26    1
    16    26    27    1
    17    27    28    1
    18    28    29    1
    19    29    30    1
    20    30    31    1
    21    31    32    1
    22    32    33    1
    23    33    34    1
    24    23    24   ar
    25    24    25   ar
    26     3     6    1
    27     6     7    1
    28     7     8    1
    29     7     9    1
    30     7    10    1
    31    10    11    2
    32    11    12    1
    33    12    13    2
    34    13    14    1
    35    14    15    1
    36    15    16    1
    37    15    17    2
    38    17    18    1
    39    18    19    2
    40    11     1    1
    41    19    13    1
    42    25    20   ar
    43    19    10    1
    44    34    29    1
@<TRIPOS>MOLECULE
*****
 40 44 0 0 0
SMALL
GASTEIGER

@<TRIPOS>ATOM
      1 C         142.3763  143.4947  163.0320 C.2     1  UNL1        0.1077
      2 C         142.5513  143.5645  161.5438 C.2     1  UNL1        0.0757
      3 N         142.9619  142.4749  160.5982 N.am    1  UNL1       -0.2534
      4 C         143.0467  142.8655  159.1525 C.2     1  UNL1        0.2528
      5 O         142.7298  144.2711  158.7356 O.2     1  UNL1       -0.2696
      6 C         143.2989  141.0463  160.9073 C.3     1  UNL1        0.1025
      7 C         143.3086  140.3545  162.2381 C.3     1  UNL1        0.0390
      8 C         143.5010  139.1777  163.1482 C.3     1  UNL1        0.0061
      9 C         143.7192  139.2648  161.2926 C.3     1  UNL1        0.0061
     10 C         142.9836  140.9204  163.5888 C.2     1  UNL1       -0.0022
     11 C         142.5687  142.3179  163.9420 C.2     1  UNL1        0.0845
     12 N         142.3598  142.3782  165.4262 N.2     1  UNL1       -0.2493
     13 C         142.6457  141.0180  165.9902 C.2     1  UNL1        0.0654
     14 C         142.6047  140.4834  167.3911 C.3     1  UNL1        0.1022
     15 C         142.9493  139.0479  167.6564 C.2     1  UNL1        0.1236
     16 F         142.9083  138.5132  169.0573 F       1  UNL1       -0.2085
     17 C         143.3348  138.1469  166.5208 C.2     1  UNL1        0.0256
     18 C         143.3757  138.6814  165.1199 C.2     1  UNL1        0.0029
     19 C         143.0312  140.1170  164.8546 C.2     1  UNL1        0.0115
     20 C         143.4484  141.8506  158.1237 C.ar    1  UNL1        0.0541
     21 C         144.8738  141.7731  157.6631 C.ar    1  UNL1        0.0076
     22 C         145.2756  140.7582  156.6343 C.ar    1  UNL1        0.0370
     23 C         144.2518  139.8207  156.0661 C.ar    1  UNL1        0.1386
     24 C         142.8264  139.8981  156.5266 C.ar    1  UNL1        0.0370
     25 C         142.4247  140.9131  157.5554 C.ar    1  UNL1        0.0076
     26 O         144.6535  138.8057  155.0372 O.3     1  UNL1       -0.4740
     27 C         144.4643  137.3434  155.3125 C.3     1  UNL1        0.2226
     28 C         143.1440  136.6912  155.0269 C.3     1  UNL1        0.1202
     29 N         142.8518  135.3220  155.5653 N.3     1  UNL1       -0.2653
     30 C         143.6031  134.8090  156.7578 C.3     1  UNL1        0.1047
     31 C         143.3110  133.4397  157.2963 C.3     1  UNL1        0.1595
     32 O         142.2674  132.5835  156.6420 O.3     1  UNL1       -0.3508
     33 C         141.5161  133.0966  155.4494 C.3     1  UNL1        0.1595
     34 C         141.8083  134.4658  154.9110 C.3     1  UNL1        0.1047
     35 C         141.9529  144.7702  163.6981 C.2     1  UNL1        0.3438
     36 O         142.9713  145.8250  164.0145 O.2     1  UNL1       -0.2448
     37 O         140.5110  144.9909  164.0479 O.3     1  UNL1       -0.4491
     38 C         138.2162  144.3888  162.9890 C.3     1  UNL1        0.0473
     39 C         139.4947  145.1728  162.9598 C.3     1  UNL1        0.1694
     40 C         139.7568  146.1387  161.8426 C.3     1  UNL1        0.0473
@<TRIPOS>BOND
     1    38    39    1
     2    39    40    1
     3    39    37    1
     4    37    35    1
     5    35    36    2
     6    35     1    1
     7     1     2    2
     8     2     3    1
     9     3     4   am
    10     4     5    2
    11     4    20    1
    12    20    21   ar
    13    21    22   ar
    14    22    23   ar
    15    23    26    1
    16    26    27    1
    17    27    28    1
    18    28    29    1
    19    29    30    1
    20    30    31    1
    21    31    32    1
    22    32    33    1
    23    33    34    1
    24    23    24   ar
    25    24    25   ar
    26     3     6    1
    27     6     7    1
    28     7     8    1
    29     7     9    1
    30     7    10    1
    31    10    11    2
    32    11    12    1
    33    12    13    2
    34    13    14    1
    35    14    15    1
    36    15    16    1
    37    15    17    2
    38    17    18    1
    39    18    19    2
    40    11     1    1
    41    19    13    1
    42    25    20   ar
    43    19    10    1
    44    34    29    1
@<TRIPOS>MOLECULE
*****
 40 44 0 0 0
SMALL
GASTEIGER

@<TRIPOS>ATOM
      1 C         141.9059  142.1531  162.3026 C.2     1  UNL1        0.1077
      2 C         142.1476  141.7796  160.8701 C.2     1  UNL1        0.0757
      3 N         141.6754  140.5647  160.1278 N.am    1  UNL1       -0.2534
      4 C         142.0884  140.4801  158.6883 C.2     1  UNL1        0.2528
      5 O         142.9210  141.5703  158.0816 O.2     1  UNL1       -0.2696
      6 C         140.8448  139.4232  160.6348 C.3     1  UNL1        0.1025
      7 C         140.2813  139.2146  162.0091 C.3     1  UNL1        0.0390
      8 C         139.5076  138.4654  163.0532 C.3     1  UNL1        0.0061
      9 C         139.8090  137.9996  161.2669 C.3     1  UNL1        0.0061
     10 C         140.4092  140.0961  163.2161 C.2     1  UNL1       -0.0022
     11 C         141.1322  141.4039  163.3466 C.2     1  UNL1        0.0845
     12 N         140.9628  141.8884  164.7561 N.2     1  UNL1       -0.2493
     13 C         140.1351  140.8802  165.4966 C.2     1  UNL1        0.0654
     14 C         139.6488  140.8276  166.9146 C.3     1  UNL1        0.1022
     15 C         138.8204  139.6674  167.3808 C.2     1  UNL1        0.1236
     16 F         138.3340  139.6148  168.7988 F       1  UNL1       -0.2085
     17 C         138.4782  138.5597  166.4290 C.2     1  UNL1        0.0256
     18 C         138.9645  138.6122  165.0110 C.2     1  UNL1        0.0029
     19 C         139.7929  139.7724  164.5448 C.2     1  UNL1        0.0115
     20 C         141.6687  139.3052  157.8554 C.ar    1  UNL1        0.0541
     21 C         140.3497  139.3250  157.1414 C.ar    1  UNL1        0.0076
     22 C         139.9300  138.1501  156.3085 C.ar    1  UNL1        0.0370
     23 C         140.8294  136.9556  156.1897 C.ar    1  UNL1        0.1386
     24 C         142.1484  136.9358  156.9037 C.ar    1  UNL1        0.0370
     25 C         142.5681  138.1107  157.7366 C.ar    1  UNL1        0.0076
     26 O         140.4097  135.7807  155.3569 O.3     1  UNL1       -0.4740
     27 C         141.4409  134.8240  154.8362 C.3     1  UNL1        0.2226
     28 C         141.5233  133.4337  155.3934 C.3     1  UNL1        0.1202
     29 N         142.7985  132.9505  156.0181 N.3     1  UNL1       -0.2653
     30 C         143.2998  133.5810  157.2834 C.3     1  UNL1        0.1047
     31 C         144.5751  133.0978  157.9082 C.3     1  UNL1        0.1595
     32 O         145.3490  131.9840  157.2674 O.3     1  UNL1       -0.3508
     33 C         144.8478  131.3535  156.0021 C.3     1  UNL1        0.1595
     34 C         143.5725  131.8367  155.3774 C.3     1  UNL1        0.1047
     35 C         142.5189  143.4468  162.7502 C.2     1  UNL1        0.3438
     36 O         141.6475  144.6405  163.0070 O.2     1  UNL1       -0.2448
     37 O         144.0033  143.5470  162.9412 O.3     1  UNL1       -0.4491
     38 C         144.3352  143.2664  165.5026 C.3     1  UNL1        0.0473
     39 C         144.6593  142.8526  164.0977 C.3     1  UNL1        0.1694
     40 C         145.6392  141.7444  163.8494 C.3     1  UNL1        0.0473
@<TRIPOS>BOND
     1    38    39    1
     2    39    40    1
     3    39    37    1
     4    37    35    1
     5    35    36    2
     6    35     1    1
     7     1     2    2
     8     2     3    1
     9     3     4   am
    10     4     5    2
    11     4    20    1
    12    20    21   ar
    13    21    22   ar
    14    22    23   ar
    15    23    26    1
    16    26    27    1
    17    27    28    1
    18    28    29    1
    19    29    30    1
    20    30    31    1
    21    31    32    1
    22    32    33    1
    23    33    34    1
    24    23    24   ar
    25    24    25   ar
    26     3     6    1
    27     6     7    1
    28     7     8    1
    29     7     9    1
    30     7    10    1
    31    10    11    2
    32    11    12    1
    33    12    13    2
    34    13    14    1
    35    14    15    1
    36    15    16    1
    37    15    17    2
    38    17    18    1
    39    18    19    2
    40    11     1    1
    41    19    13    1
    42    25    20   ar
    43    19    10    1
    44    34    29    1
@<TRIPOS>MOLECULE
*****
 40 44 0 0 0
SMALL
GASTEIGER

@<TRIPOS>ATOM
      1 C         139.3253  141.3315  162.2520 C.2     1  UNL1        0.1077
      2 C         139.3336  141.0508  160.7785 C.2     1  UNL1        0.0757
      3 N         140.2122  140.1081  160.0109 N.am    1  UNL1       -0.2534
      4 C         139.9717  140.0529  158.5314 C.2     1  UNL1        0.2528
      5 O         138.9065  140.9085  157.9123 O.2     1  UNL1       -0.2696
      6 C         141.2997  139.2132  160.5273 C.3     1  UNL1        0.1025
      7 C         141.7770  139.0400  161.9387 C.3     1  UNL1        0.0390
      8 C         142.6454  138.4473  163.0086 C.3     1  UNL1        0.0061
      9 C         142.6557  138.0972  161.1712 C.3     1  UNL1        0.0061
     10 C         141.2848  139.7190  163.1825 C.2     1  UNL1       -0.0022
     11 C         140.1937  140.7388  163.3218 C.2     1  UNL1        0.0845
     12 N         140.0854  141.1064  164.7720 N.2     1  UNL1       -0.2493
     13 C         141.1095  140.3138  165.5289 C.2     1  UNL1        0.0654
     14 C         141.4628  140.2620  166.9858 C.3     1  UNL1        0.1022
     15 C         142.5574  139.3528  167.4602 C.2     1  UNL1        0.1236
     16 F         142.9107  139.3011  168.9171 F       1  UNL1       -0.2085
     17 C         143.2987  138.4953  166.4778 C.2     1  UNL1        0.0256
     18 C         142.9454  138.5471  165.0209 C.2     1  UNL1        0.0029
     19 C         141.8508  139.4563  164.5465 C.2     1  UNL1        0.0115
     20 C         140.7963  139.1421  157.6709 C.ar    1  UNL1        0.0541
     21 C         142.1626  139.5682  157.2219 C.ar    1  UNL1        0.0076
     22 C         142.9873  138.6574  156.3614 C.ar    1  UNL1        0.0370
     23 C         142.4456  137.3206  155.9499 C.ar    1  UNL1        0.1386
     24 C         141.0793  136.8945  156.3989 C.ar    1  UNL1        0.0370
     25 C         140.2546  137.8053  157.2594 C.ar    1  UNL1        0.0076
     26 O         143.2702  136.4098  155.0894 O.3     1  UNL1       -0.4740
     27 C         143.2823  134.9337  155.3559 C.3     1  UNL1        0.2226
     28 C         143.8097  134.4111  156.6593 C.3     1  UNL1        0.1202
     29 N         143.8430  132.9338  156.9165 N.3     1  UNL1       -0.2653
     30 C         144.9073  132.3498  157.7977 C.3     1  UNL1        0.1047
     31 C         144.9407  130.8724  158.0550 C.3     1  UNL1        0.1595
     32 O         143.9098  129.9790  157.4311 O.3     1  UNL1       -0.3508
     33 C         142.8456  130.5630  156.5499 C.3     1  UNL1        0.1595
     34 C         142.8122  132.0403  156.2927 C.3     1  UNL1        0.1047
     35 C         138.3151  142.3381  162.7171 C.2     1  UNL1        0.3438
     36 O         136.9604  141.8848  163.1746 O.2     1  UNL1       -0.2448
     37 O         138.6596  143.7980  162.7248 O.3     1  UNL1       -0.4491
     38 C         138.5469  144.6981  165.1593 C.3     1  UNL1        0.0473
     39 C         139.3368  144.4025  163.9189 C.3     1  UNL1        0.1694
     40 C         140.8040  144.7113  163.8727 C.3     1  UNL1        0.0473
@<TRIPOS>BOND
     1    38    39    1
     2    39    40    1
     3    39    37    1
     4    37    35    1
     5    35    36    2
     6    35     1    1
     7     1     2    2
     8     2     3    1
     9     3     4   am
    10     4     5    2
    11     4    20    1
    12    20    21   ar
    13    21    22   ar
    14    22    23   ar
    15    23    26    1
    16    26    27    1
    17    27    28    1
    18    28    29    1
    19    29    30    1
    20    30    31    1
    21    31    32    1
    22    32    33    1
    23    33    34    1
    24    23    24   ar
    25    24    25   ar
    26     3     6    1
    27     6     7    1
    28     7     8    1
    29     7     9    1
    30     7    10    1
    31    10    11    2
    32    11    12    1
    33    12    13    2
    34    13    14    1
    35    14    15    1
    36    15    16    1
    37    15    17    2
    38    17    18    1
    39    18    19    2
    40    11     1    1
    41    19    13    1
    42    25    20   ar
    43    19    10    1
    44    34    29    1
@<TRIPOS>MOLECULE
*****
 40 44 0 0 0
SMALL
GASTEIGER

@<TRIPOS>ATOM
      1 C         141.7943  142.2549  162.2333 C.2     1  UNL1        0.1077
      2 C         142.0360  141.8805  160.8011 C.2     1  UNL1        0.0757
      3 N         141.6111  140.6390  160.0744 N.am    1  UNL1       -0.2534
      4 C         142.0105  140.5609  158.6307 C.2     1  UNL1        0.2528
      5 O         142.7852  141.6827  158.0052 O.2     1  UNL1       -0.2696
      6 C         140.8395  139.4652  160.6006 C.3     1  UNL1        0.1025
      7 C         140.3023  139.2430  161.9834 C.3     1  UNL1        0.0390
      8 C         139.5760  138.4683  163.0428 C.3     1  UNL1        0.0061
      9 C         139.8773  138.0014  161.2568 C.3     1  UNL1        0.0061
     10 C         140.4040  140.1398  163.1815 C.2     1  UNL1       -0.0022
     11 C         141.0680  141.4802  163.2927 C.2     1  UNL1        0.0845
     12 N         140.8933  141.9686  164.7002 N.2     1  UNL1       -0.2493
     13 C         140.1213  140.9301  165.4588 C.2     1  UNL1        0.0654
     14 C         139.6546  140.8677  166.8830 C.3     1  UNL1        0.1022
     15 C         138.8856  139.6749  167.3685 C.2     1  UNL1        0.1236
     16 F         138.4189  139.6124  168.7928 F       1  UNL1       -0.2085
     17 C         138.5832  138.5446  166.4300 C.2     1  UNL1        0.0256
     18 C         139.0498  138.6070  165.0058 C.2     1  UNL1        0.0029
     19 C         139.8189  139.7998  164.5202 C.2     1  UNL1        0.0115
     20 C         141.6352  139.3610  157.8125 C.ar    1  UNL1        0.0541
     21 C         140.2613  139.2575  157.2195 C.ar    1  UNL1        0.0076
     22 C         139.8859  138.0576  156.4013 C.ar    1  UNL1        0.0370
     23 C         140.8845  136.9613  156.1761 C.ar    1  UNL1        0.1386
     24 C         142.2584  137.0648  156.7691 C.ar    1  UNL1        0.0370
     25 C         142.6337  138.2647  157.5873 C.ar    1  UNL1        0.0076
     26 O         140.5092  135.7614  155.3579 O.3     1  UNL1       -0.4740
     27 C         141.5487  134.7391  155.0052 C.3     1  UNL1        0.2226
     28 C         141.4428  133.3442  155.5466 C.3     1  UNL1        0.1202
     29 N         142.5524  132.7777  156.3819 N.3     1  UNL1       -0.2653
     30 C         142.7372  131.2921  156.4756 C.3     1  UNL1        0.1047
     31 C         143.8468  130.7255  157.3110 C.3     1  UNL1        0.1595
     32 O         144.7715  131.6446  158.0527 O.3     1  UNL1       -0.3508
     33 C         144.5867  133.1302  157.9591 C.3     1  UNL1        0.1595
     34 C         143.4771  133.6968  157.1237 C.3     1  UNL1        0.1047
     35 C         142.3528  143.5791  162.6631 C.2     1  UNL1        0.3438
     36 O         143.8367  143.7662  162.7760 O.2     1  UNL1       -0.2448
     37 O         141.4272  144.7162  162.9798 O.3     1  UNL1       -0.4491
     38 C         138.8450  144.5788  162.7278 C.3     1  UNL1        0.0473
     39 C         140.1890  144.9262  162.1596 C.3     1  UNL1        0.1694
     40 C         140.2948  145.4837  160.7710 C.3     1  UNL1        0.0473
@<TRIPOS>BOND
     1    38    39    1
     2    39    40    1
     3    39    37    1
     4    37    35    1
     5    35    36    2
     6    35     1    1
     7     1     2    2
     8     2     3    1
     9     3     4   am
    10     4     5    2
    11     4    20    1
    12    20    21   ar
    13    21    22   ar
    14    22    23   ar
    15    23    26    1
    16    26    27    1
    17    27    28    1
    18    28    29    1
    19    29    30    1
    20    30    31    1
    21    31    32    1
    22    32    33    1
    23    33    34    1
    24    23    24   ar
    25    24    25   ar
    26     3     6    1
    27     6     7    1
    28     7     8    1
    29     7     9    1
    30     7    10    1
    31    10    11    2
    32    11    12    1
    33    12    13    2
    34    13    14    1
    35    14    15    1
    36    15    16    1
    37    15    17    2
    38    17    18    1
    39    18    19    2
    40    11     1    1
    41    19    13    1
    42    25    20   ar
    43    19    10    1
    44    34    29    1
@<TRIPOS>MOLECULE
*****
 40 44 0 0 0
SMALL
GASTEIGER

@<TRIPOS>ATOM
      1 C         139.7949  142.9445  162.2858 C.2     1  UNL1        0.1077
      2 C         140.4641  143.0934  160.9516 C.2     1  UNL1        0.0757
      3 N         140.9802  142.0205  160.0392 N.am    1  UNL1       -0.2534
      4 C         141.6044  142.4975  158.7613 C.2     1  UNL1        0.2528
      5 O         141.6807  143.9662  158.4665 O.2     1  UNL1       -0.2696
      6 C         140.9547  140.5337  160.2357 C.3     1  UNL1        0.1025
      7 C         140.4067  139.7525  161.3931 C.3     1  UNL1        0.0390
      8 C         140.0885  138.4938  162.1444 C.3     1  UNL1        0.0061
      9 C         140.9229  138.6795  160.4807 C.3     1  UNL1        0.0061
     10 C         139.7489  140.2653  162.6399 C.2     1  UNL1       -0.0022
     11 C         139.4767  141.6858  163.0371 C.2     1  UNL1        0.0845
     12 N         138.7989  141.6711  164.3752 N.2     1  UNL1       -0.2493
     13 C         138.6523  140.2415  164.8049 C.2     1  UNL1        0.0654
     14 C         138.0600  139.6187  166.0342 C.3     1  UNL1        0.1022
     15 C         138.0549  138.1269  166.1910 C.2     1  UNL1        0.1236
     16 F         137.4625  137.5040  167.4203 F       1  UNL1       -0.2085
     17 C         138.6420  137.2580  165.1185 C.2     1  UNL1        0.0256
     18 C         139.2343  137.8809  163.8892 C.2     1  UNL1        0.0029
     19 C         139.2395  139.3726  163.7324 C.2     1  UNL1        0.0115
     20 C         142.1523  141.5057  157.7784 C.ar    1  UNL1        0.0541
     21 C         143.6134  141.1666  157.7904 C.ar    1  UNL1        0.0076
     22 C         144.1613  140.1748  156.8074 C.ar    1  UNL1        0.0370
     23 C         143.2480  139.5222  155.8125 C.ar    1  UNL1        0.1386
     24 C         141.7869  139.8613  155.8004 C.ar    1  UNL1        0.0370
     25 C         141.2391  140.8531  156.7834 C.ar    1  UNL1        0.0076
     26 O         143.7959  138.5305  154.8295 O.3     1  UNL1       -0.4740
     27 C         143.3597  137.0965  154.8886 C.3     1  UNL1        0.2226
     28 C         143.4963  136.3231  156.1666 C.3     1  UNL1        0.1202
     29 N         143.0429  134.8948  156.2310 N.3     1  UNL1       -0.2653
     30 C         143.7481  133.9239  157.1310 C.3     1  UNL1        0.1047
     31 C         143.2946  132.4954  157.1954 C.3     1  UNL1        0.1595
     32 O         142.1360  132.0381  156.3597 O.3     1  UNL1       -0.3508
     33 C         141.4308  133.0090  155.4597 C.3     1  UNL1        0.1595
     34 C         141.8843  134.4373  155.3953 C.3     1  UNL1        0.1047
     35 C         139.3906  144.2233  162.9575 C.2     1  UNL1        0.3438
     36 O         138.1794  144.9697  162.4822 O.2     1  UNL1       -0.2448
     37 O         140.1975  144.7557  164.1045 O.3     1  UNL1       -0.4491
     38 C         142.6924  145.1590  163.5023 C.3     1  UNL1        0.0473
     39 C         141.6437  144.3819  164.2414 C.3     1  UNL1        0.1694
     40 C         142.0412  143.2310  165.1174 C.3     1  UNL1        0.0473
@<TRIPOS>BOND
     1    38    39    1
     2    39    40    1
     3    39    37    1
     4    37    35    1
     5    35    36    2
     6    35     1    1
     7     1     2    2
     8     2     3    1
     9     3     4   am
    10     4     5    2
    11     4    20    1
    12    20    21   ar
    13    21    22   ar
    14    22    23   ar
    15    23    26    1
    16    26    27    1
    17    27    28    1
    18    28    29    1
    19    29    30    1
    20    30    31    1
    21    31    32    1
    22    32    33    1
    23    33    34    1
    24    23    24   ar
    25    24    25   ar
    26     3     6    1
    27     6     7    1
    28     7     8    1
    29     7     9    1
    30     7    10    1
    31    10    11    2
    32    11    12    1
    33    12    13    2
    34    13    14    1
    35    14    15    1
    36    15    16    1
    37    15    17    2
    38    17    18    1
    39    18    19    2
    40    11     1    1
    41    19    13    1
    42    25    20   ar
    43    19    10    1
    44    34    29    1
@<TRIPOS>MOLECULE
*****
 40 44 0 0 0
SMALL
GASTEIGER

@<TRIPOS>ATOM
      1 C         143.4727  140.5385  162.5652 C.2     1  UNL1        0.1077
      2 C         143.6170  140.2820  161.0944 C.2     1  UNL1        0.0757
      3 N         142.6376  139.6412  160.1562 N.am    1  UNL1       -0.2534
      4 C         143.0826  139.5280  158.7283 C.2     1  UNL1        0.2528
      5 O         144.4322  140.0402  158.3205 O.2     1  UNL1       -0.2696
      6 C         141.2720  139.0986  160.4572 C.3     1  UNL1        0.1025
      7 C         140.5484  139.0628  161.7707 C.3     1  UNL1        0.0390
      8 C         139.3890  138.7418  162.6667 C.3     1  UNL1        0.0061
      9 C         139.5690  138.4219  160.8326 C.3     1  UNL1        0.0061
     10 C         141.0119  139.5607  163.1077 C.2     1  UNL1       -0.0022
     11 C         142.3133  140.2174  163.4612 C.2     1  UNL1        0.0845
     12 N         142.2921  140.5280  164.9286 N.2     1  UNL1       -0.2493
     13 C         140.9777  140.0632  165.4819 C.2     1  UNL1        0.0654
     14 C         140.3990  140.1071  166.8650 C.3     1  UNL1        0.1022
     15 C         139.0291  139.5532  167.1228 C.2     1  UNL1        0.1236
     16 F         138.4504  139.5970  168.5061 F       1  UNL1       -0.2085
     17 C         138.2379  138.9553  165.9974 C.2     1  UNL1        0.0256
     18 C         138.8165  138.9114  164.6143 C.2     1  UNL1        0.0029
     19 C         140.1864  139.4654  164.3565 C.2     1  UNL1        0.0115
     20 C         142.1781  138.9027  157.7081 C.ar    1  UNL1        0.0541
     21 C         141.2194  139.7563  156.9321 C.ar    1  UNL1        0.0076
     22 C         140.3148  139.1310  155.9119 C.ar    1  UNL1        0.0370
     23 C         140.3691  137.6521  155.6677 C.ar    1  UNL1        0.1386
     24 C         141.3279  136.7984  156.4436 C.ar    1  UNL1        0.0370
     25 C         142.2324  137.4238  157.4638 C.ar    1  UNL1        0.0076
     26 O         139.4646  137.0267  154.6475 O.3     1  UNL1       -0.4740
     27 C         138.0144  137.4068  154.5976 C.3     1  UNL1        0.2226
     28 C         137.5516  138.4770  153.6539 C.3     1  UNL1        0.1202
     29 N         136.7604  139.6418  154.1707 N.3     1  UNL1       -0.2653
     30 C         137.4188  140.9787  154.3421 C.3     1  UNL1        0.1047
     31 C         136.6277  142.1436  154.8590 C.3     1  UNL1        0.1595
     32 O         135.1782  141.9716  155.2045 O.3     1  UNL1       -0.3508
     33 C         134.5198  140.6347  155.0331 C.3     1  UNL1        0.1595
     34 C         135.3109  139.4699  154.5162 C.3     1  UNL1        0.1047
     35 C         144.6424  141.2039  163.2277 C.2     1  UNL1        0.3438
     36 O         145.5908  140.3959  164.0630 O.2     1  UNL1       -0.2448
     37 O         144.8637  142.6774  163.0550 O.3     1  UNL1       -0.4491
     38 C         143.2350  144.6611  163.4575 C.3     1  UNL1        0.0473
     39 C         144.2062  143.6492  163.9894 C.3     1  UNL1        0.1694
     40 C         144.5197  143.6092  165.4557 C.3     1  UNL1        0.0473
@<TRIPOS>BOND
     1    38    39    1
     2    39    40    1
     3    39    37    1
     4    37    35    1
     5    35    36    2
     6    35     1    1
     7     1     2    2
     8     2     3    1
     9     3     4   am
    10     4     5    2
    11     4    20    1
    12    20    21   ar
    13    21    22   ar
    14    22    23   ar
    15    23    26    1
    16    26    27    1
    17    27    28    1
    18    28    29    1
    19    29    30    1
    20    30    31    1
    21    31    32    1
    22    32    33    1
    23    33    34    1
    24    23    24   ar
    25    24    25   ar
    26     3     6    1
    27     6     7    1
    28     7     8    1
    29     7     9    1
    30     7    10    1
    31    10    11    2
    32    11    12    1
    33    12    13    2
    34    13    14    1
    35    14    15    1
    36    15    16    1
    37    15    17    2
    38    17    18    1
    39    18    19    2
    40    11     1    1
    41    19    13    1
    42    25    20   ar
    43    19    10    1
    44    34    29    1
@<TRIPOS>MOLECULE
*****
 40 44 0 0 0
SMALL
GASTEIGER

@<TRIPOS>ATOM
      1 C         142.4071  140.1026  162.0260 C.2     1  UNL1        0.1077
      2 C         142.4272  139.3777  160.7129 C.2     1  UNL1        0.0757
      3 N         141.4410  139.4571  159.5856 N.am    1  UNL1       -0.2534
      4 C         141.7449  138.5991  158.3933 C.2     1  UNL1        0.2528
      5 O         142.9716  137.7360  158.3835 O.2     1  UNL1       -0.2696
      6 C         140.1910  140.2810  159.4928 C.3     1  UNL1        0.1025
      7 C         139.6185  141.2291  160.5045 C.3     1  UNL1        0.0390
      8 C         138.6071  142.2124  161.0145 C.3     1  UNL1        0.0061
      9 C         138.6322  141.3085  159.3772 C.3     1  UNL1        0.0061
     10 C         140.1547  141.5873  161.8589 C.2     1  UNL1       -0.0022
     11 C         141.3957  141.0860  162.5360 C.2     1  UNL1        0.0845
     12 N         141.4902  141.7470  163.8791 N.2     1  UNL1       -0.2493
     13 C         140.3075  142.6570  164.0321 C.2     1  UNL1        0.0654
     14 C         139.8756  143.5626  165.1471 C.3     1  UNL1        0.1022
     15 C         138.6182  144.3695  165.0134 C.2     1  UNL1        0.1236
     16 F         138.1862  145.2753  166.1284 F       1  UNL1       -0.2085
     17 C         137.7928  144.2708  163.7649 C.2     1  UNL1        0.0256
     18 C         138.2248  143.3652  162.6499 C.2     1  UNL1        0.0029
     19 C         139.4821  142.5582  162.7835 C.2     1  UNL1        0.0115
     20 C         140.8220  138.6043  157.2107 C.ar    1  UNL1        0.0541
     21 C         139.8702  137.4648  156.9972 C.ar    1  UNL1        0.0076
     22 C         138.9474  137.4700  155.8146 C.ar    1  UNL1        0.0370
     23 C         138.9764  138.6146  154.8457 C.ar    1  UNL1        0.1386
     24 C         139.9282  139.7541  155.0593 C.ar    1  UNL1        0.0370
     25 C         140.8510  139.7489  156.2419 C.ar    1  UNL1        0.0076
     26 O         138.0535  138.6198  153.6632 O.3     1  UNL1       -0.4740
     27 C         136.5702  138.5350  153.8691 C.3     1  UNL1        0.2226
     28 C         135.7200  139.7609  153.7129 C.3     1  UNL1        0.1202
     29 N         134.6173  140.0384  154.6911 N.3     1  UNL1       -0.2653
     30 C         134.4078  139.1268  155.8637 C.3     1  UNL1        0.1047
     31 C         133.3051  139.4043  156.8420 C.3     1  UNL1        0.1595
     32 O         132.4119  140.5936  156.6476 O.3     1  UNL1       -0.3508
     33 C         132.6213  141.5053  155.4750 C.3     1  UNL1        0.1595
     34 C         133.7240  141.2277  154.4968 C.3     1  UNL1        0.1047
     35 C         143.5494  139.8048  162.9514 C.2     1  UNL1        0.3438
     36 O         143.3914  138.7753  164.0308 O.2     1  UNL1       -0.2448
     37 O         144.8498  140.5365  162.7974 O.3     1  UNL1       -0.4491
     38 C         145.1127  142.5809  164.3790 C.3     1  UNL1        0.0473
     39 C         144.9037  142.0213  163.0030 C.3     1  UNL1        0.1694
     40 C         144.7488  142.9467  161.8327 C.3     1  UNL1        0.0473
@<TRIPOS>BOND
     1    38    39    1
     2    39    40    1
     3    39    37    1
     4    37    35    1
     5    35    36    2
     6    35     1    1
     7     1     2    2
     8     2     3    1
     9     3     4   am
    10     4     5    2
    11     4    20    1
    12    20    21   ar
    13    21    22   ar
    14    22    23   ar
    15    23    26    1
    16    26    27    1
    17    27    28    1
    18    28    29    1
    19    29    30    1
    20    30    31    1
    21    31    32    1
    22    32    33    1
    23    33    34    1
    24    23    24   ar
    25    24    25   ar
    26     3     6    1
    27     6     7    1
    28     7     8    1
    29     7     9    1
    30     7    10    1
    31    10    11    2
    32    11    12    1
    33    12    13    2
    34    13    14    1
    35    14    15    1
    36    15    16    1
    37    15    17    2
    38    17    18    1
    39    18    19    2
    40    11     1    1
    41    19    13    1
    42    25    20   ar
    43    19    10    1
    44    34    29    1
@<TRIPOS>MOLECULE
*****
 40 44 0 0 0
SMALL
GASTEIGER

@<TRIPOS>ATOM
      1 C         139.8619  142.3999  163.4685 C.2     1  UNL1        0.1077
      2 C         139.9406  142.1495  161.9916 C.2     1  UNL1        0.0757
      3 N         140.7271  141.1016  161.2613 N.am    1  UNL1       -0.2534
      4 C         140.5939  141.1112  159.7673 C.2     1  UNL1        0.2528
      5 O         139.7156  142.1272  159.0991 O.2     1  UNL1       -0.2696
      6 C         141.6293  140.0455  161.8275 C.3     1  UNL1        0.1025
      7 C         141.9678  139.7763  163.2638 C.3     1  UNL1        0.0390
      8 C         142.6564  139.0408  164.3751 C.3     1  UNL1        0.0061
      9 C         142.7544  138.7284  162.5335 C.3     1  UNL1        0.0061
     10 C         141.4877  140.4968  164.4887 C.2     1  UNL1       -0.0022
     11 C         140.5505  141.6644  164.5798 C.2     1  UNL1        0.0845
     12 N         140.3876  142.0161  166.0288 N.2     1  UNL1       -0.2493
     13 C         141.2242  141.0659  166.8333 C.2     1  UNL1        0.0654
     14 C         141.4547  140.9343  168.3096 C.3     1  UNL1        0.1022
     15 C         142.3650  139.8637  168.8341 C.2     1  UNL1        0.1236
     16 F         142.5956  139.7321  170.3105 F       1  UNL1       -0.2085
     17 C         143.0449  138.9247  167.8822 C.2     1  UNL1        0.0256
     18 C         142.8144  139.0563  166.4059 C.2     1  UNL1        0.0029
     19 C         141.9041  140.1269  165.8815 C.2     1  UNL1        0.0115
     20 C         141.3389  140.1048  158.9413 C.ar    1  UNL1        0.0541
     21 C         140.8141  138.7057  158.8108 C.ar    1  UNL1        0.0076
     22 C         141.5592  137.6992  157.9848 C.ar    1  UNL1        0.0370
     23 C         142.8289  138.0920  157.2896 C.ar    1  UNL1        0.1386
     24 C         143.3536  139.4911  157.4202 C.ar    1  UNL1        0.0370
     25 C         142.6086  140.4975  158.2461 C.ar    1  UNL1        0.0076
     26 O         143.5739  137.0856  156.4637 O.3     1  UNL1       -0.4740
     27 C         142.8389  136.2470  155.4604 C.3     1  UNL1        0.2226
     28 C         142.3136  134.8976  155.8519 C.3     1  UNL1        0.1202
     29 N         143.2653  133.8097  156.2529 N.3     1  UNL1       -0.2653
     30 C         143.5406  132.6712  155.3159 C.3     1  UNL1        0.1047
     31 C         144.4923  131.5832  155.7168 C.3     1  UNL1        0.1595
     32 O         145.1686  131.6339  157.0548 O.3     1  UNL1       -0.3508
     33 C         144.8932  132.7724  157.9918 C.3     1  UNL1        0.1595
     34 C         143.9416  133.8603  157.5908 C.3     1  UNL1        0.1047
     35 C         138.9779  143.5361  163.8898 C.2     1  UNL1        0.3438
     36 O         137.5593  143.2709  164.2987 O.2     1  UNL1       -0.2448
     37 O         139.5125  144.9376  163.9021 O.3     1  UNL1       -0.4491
     38 C         140.3900  145.8011  161.6142 C.3     1  UNL1        0.0473
     39 C         140.6565  145.3118  163.0070 C.3     1  UNL1        0.1694
     40 C         142.0668  145.1968  163.5045 C.3     1  UNL1        0.0473
@<TRIPOS>BOND
     1    38    39    1
     2    39    40    1
     3    39    37    1
     4    37    35    1
     5    35    36    2
     6    35     1    1
     7     1     2    2
     8     2     3    1
     9     3     4   am
    10     4     5    2
    11     4    20    1
    12    20    21   ar
    13    21    22   ar
    14    22    23   ar
    15    23    26    1
    16    26    27    1
    17    27    28    1
    18    28    29    1
    19    29    30    1
    20    30    31    1
    21    31    32    1
    22    32    33    1
    23    33    34    1
    24    23    24   ar
    25    24    25   ar
    26     3     6    1
    27     6     7    1
    28     7     8    1
    29     7     9    1
    30     7    10    1
    31    10    11    2
    32    11    12    1
    33    12    13    2
    34    13    14    1
    35    14    15    1
    36    15    16    1
    37    15    17    2
    38    17    18    1
    39    18    19    2
    40    11     1    1
    41    19    13    1
    42    25    20   ar
    43    19    10    1
    44    34    29    1
