@<TRIPOS>MOLECULE
*****
 42 47 0 0 0
SMALL
GASTEIGER

@<TRIPOS>ATOM
      1 C         139.0417  144.7901  164.8622 C.3     1  UNL1        0.0311
      2 C         140.0512  144.4039  163.8221 C.ar    1  UNL1       -0.0192
      3 C         140.1482  145.1842  162.5449 C.ar    1  UNL1        0.0105
      4 C         141.1578  144.7980  161.5048 C.ar    1  UNL1        0.0513
      5 C         142.0703  143.6314  161.7421 C.ar    1  UNL1        0.0147
      6 C         141.9733  142.8509  163.0195 C.ar    1  UNL1        0.0025
      7 C         140.9638  143.2372  164.0595 C.ar    1  UNL1        0.0138
      8 C         140.8667  142.4569  165.3369 C.ar    1  UNL1        0.0843
      9 C         141.7756  142.7817  166.4851 C.ar    1  UNL1        0.1179
     10 N         141.6785  142.0015  167.7624 N.ar    1  UNL1       -0.2248
     11 C         140.6726  140.8962  167.8916 C.ar    1  UNL1        0.1633
     12 C         139.7638  140.5713  166.7434 C.ar    1  UNL1        0.1797
     13 N         138.6825  139.5449  166.5786 N.ar    1  UNL1       -0.2222
     14 C         138.1112  139.6909  165.1993 C.ar    1  UNL1        0.1196
     15 C         138.8395  140.8075  164.5117 C.ar    1  UNL1        0.1023
     16 N         139.8608  141.3517  165.4660 N.ar    1  UNL1       -0.2851
     17 N         140.5757  140.1159  169.1690 N.pl3   1  UNL1       -0.3173
     18 H         139.6956  139.9449  169.5758 H       1  UNL1        0.1482
     19 C         141.8196  139.5961  169.8267 C.3     1  UNL1        0.0706
     20 C         143.0033  139.8130  170.7220 C.3     1  UNL1        0.0212
     21 C         142.7903  138.4788  170.0703 C.3     1  UNL1        0.0212
     22 N         141.2548  145.5783  160.2275 N.am    1  UNL1       -0.2680
     23 C         140.3405  145.2587  159.0820 C.2     1  UNL1        0.3092
     24 O         139.3292  144.1588  159.2140 O.2     1  UNL1       -0.2521
     25 N         140.4375  146.0390  157.8047 N.am    1  UNL1       -0.2533
     26 H         141.9186  146.3002  160.1409 H       1  UNL1        0.1564
     27 H         141.1013  146.7610  157.7181 H       1  UNL1        0.1578
     28 C         139.5232  145.7195  156.6593 C.ar    1  UNL1        0.1380
     29 C         139.1683  144.3464  156.1711 C.ar    1  UNL1        0.0509
     30 C         138.2291  144.4952  155.0111 C.ar    1  UNL1        0.0810
     31 N         138.0035  145.9604  154.7823 N.ar    1  UNL1       -0.1683
     32 N         138.8033  146.7170  155.8010 N.ar    1  UNL1       -0.2162
     33 C         138.8712  148.2093  155.9374 C.ar    1  UNL1        0.0842
     34 C         138.4081  148.8686  157.2027 C.ar    1  UNL1        0.0192
     35 C         138.4760  150.3608  157.3391 C.ar    1  UNL1        0.0015
     36 C         139.0071  151.1938  156.2103 C.ar    1  UNL1        0.0001
     37 C         139.4703  150.5345  154.9451 C.ar    1  UNL1        0.0015
     38 C         139.4023  149.0423  154.8086 C.ar    1  UNL1        0.0192
     39 C         137.6220  143.3754  154.2188 C.3     1  UNL1        0.0372
     40 C         138.6321  143.5966  153.1322 C.3     1  UNL1        0.0060
     41 C         136.6119  143.1542  155.3055 C.3     1  UNL1        0.0060
     42 C         137.0149  142.2556  153.4266 C.3     1  UNL1        0.0060
@<TRIPOS>BOND
     1     1     2    1
     2     2     3   ar
     3     3     4   ar
     4     4    22    1
     5    22    23   am
     6    23    24    2
     7    23    25   am
     8    25    28    1
     9    28    29   ar
    10    29    30   ar
    11    30    39    1
    12    39    40    1
    13    39    41    1
    14    39    42    1
    15    30    31   ar
    16    31    32   ar
    17    32    33    1
    18    33    34   ar
    19    34    35   ar
    20    35    36   ar
    21    36    37   ar
    22    37    38   ar
    23     4     5   ar
    24     5     6   ar
    25     6     7   ar
    26     7     8    1
    27     8     9   ar
    28     9    10   ar
    29    10    11   ar
    30    11    17    1
    31    17    19    1
    32    19    20    1
    33    20    21    1
    34    11    12   ar
    35    12    13   ar
    36    13    14   ar
    37    14    15   ar
    38    15    16   ar
    39     7     2   ar
    40    16     8   ar
    41    32    28   ar
    42    38    33   ar
    43    21    19    1
    44    16    12   ar
    45    22    26    1
    46    25    27    1
    47    17    18    1
@<TRIPOS>MOLECULE
*****
 42 47 0 0 0
SMALL
GASTEIGER

@<TRIPOS>ATOM
      1 C         137.7415  141.1838  164.0184 C.3     1  UNL1        0.0311
      2 C         138.4884  139.9854  163.5124 C.ar    1  UNL1       -0.0192
      3 C         138.7120  139.8077  162.0400 C.ar    1  UNL1        0.0105
      4 C         139.4589  138.6092  161.5341 C.ar    1  UNL1        0.0513
      5 C         139.9821  137.5885  162.5007 C.ar    1  UNL1        0.0147
      6 C         139.7584  137.7662  163.9733 C.ar    1  UNL1        0.0025
      7 C         139.0116  138.9647  164.4792 C.ar    1  UNL1        0.0138
      8 C         138.7879  139.1424  165.9517 C.ar    1  UNL1        0.0843
      9 C         137.6938  138.3824  166.6412 C.ar    1  UNL1        0.1179
     10 N         137.4701  138.5602  168.1137 N.ar    1  UNL1       -0.2248
     11 C         138.3404  139.4980  168.8968 C.ar    1  UNL1        0.1633
     12 C         139.4345  140.2580  168.2073 C.ar    1  UNL1        0.1797
     13 N         140.4439  141.2451  168.7137 N.ar    1  UNL1       -0.2222
     14 C         141.2916  141.6774  167.5541 C.ar    1  UNL1        0.1196
     15 C         140.8059  140.9575  166.3311 C.ar    1  UNL1        0.1023
     16 N         139.6582  140.0802  166.7347 N.ar    1  UNL1       -0.2851
     17 N         138.1166  139.6757  170.3694 N.pl3   1  UNL1       -0.3173
     18 H         138.7421  140.2200  170.9002 H       1  UNL1        0.1482
     19 C         136.9399  139.0241  171.0331 C.3     1  UNL1        0.0706
     20 C         136.2943  137.8100  171.6324 C.3     1  UNL1        0.0212
     21 C         135.5472  139.1098  171.5835 C.3     1  UNL1        0.0212
     22 N         139.6826  138.4315  160.0616 N.am    1  UNL1       -0.2680
     23 C         140.9975  138.8165  159.4508 C.2     1  UNL1        0.3092
     24 O         142.0886  139.3792  160.3127 O.2     1  UNL1       -0.2521
     25 N         141.2212  138.6388  157.9784 N.am    1  UNL1       -0.2533
     26 H         138.9665  138.0621  159.4960 H       1  UNL1        0.1564
     27 H         140.5050  138.2694  157.4127 H       1  UNL1        0.1578
     28 C         142.5361  139.0238  157.3676 C.ar    1  UNL1        0.1380
     29 C         143.2454  140.3321  157.5542 C.ar    1  UNL1        0.0509
     30 C         144.5201  140.2850  156.7650 C.ar    1  UNL1        0.0810
     31 N         144.5985  138.9475  156.0905 N.ar    1  UNL1       -0.1683
     32 N         143.3723  138.1680  156.4630 N.ar    1  UNL1       -0.2162
     33 C         143.0406  136.7770  156.0103 C.ar    1  UNL1        0.0842
     34 C         143.0960  135.6379  156.9847 C.ar    1  UNL1        0.0192
     35 C         142.7643  134.2468  156.5320 C.ar    1  UNL1        0.0015
     36 C         142.3771  133.9948  155.1048 C.ar    1  UNL1        0.0001
     37 C         142.3216  135.1339  154.1304 C.ar    1  UNL1        0.0015
     38 C         142.6534  136.5249  154.5831 C.ar    1  UNL1        0.0192
     39 C         145.5378  141.3827  156.6673 C.3     1  UNL1        0.0372
     40 C         146.1235  140.7313  155.4496 C.3     1  UNL1        0.0060
     41 C         144.9520  142.0340  157.8850 C.3     1  UNL1        0.0060
     42 C         146.5554  142.4804  156.5697 C.3     1  UNL1        0.0060
@<TRIPOS>BOND
     1     1     2    1
     2     2     3   ar
     3     3     4   ar
     4     4    22    1
     5    22    23   am
     6    23    24    2
     7    23    25   am
     8    25    28    1
     9    28    29   ar
    10    29    30   ar
    11    30    39    1
    12    39    40    1
    13    39    41    1
    14    39    42    1
    15    30    31   ar
    16    31    32   ar
    17    32    33    1
    18    33    34   ar
    19    34    35   ar
    20    35    36   ar
    21    36    37   ar
    22    37    38   ar
    23     4     5   ar
    24     5     6   ar
    25     6     7   ar
    26     7     8    1
    27     8     9   ar
    28     9    10   ar
    29    10    11   ar
    30    11    17    1
    31    17    19    1
    32    19    20    1
    33    20    21    1
    34    11    12   ar
    35    12    13   ar
    36    13    14   ar
    37    14    15   ar
    38    15    16   ar
    39     7     2   ar
    40    16     8   ar
    41    32    28   ar
    42    38    33   ar
    43    21    19    1
    44    16    12   ar
    45    22    26    1
    46    25    27    1
    47    17    18    1
@<TRIPOS>MOLECULE
*****
 42 47 0 0 0
SMALL
GASTEIGER

@<TRIPOS>ATOM
      1 C         141.0939  136.9643  164.3284 C.3     1  UNL1        0.0311
      2 C         140.4482  137.9183  163.3677 C.ar    1  UNL1       -0.0192
      3 C         140.5465  137.6768  161.8907 C.ar    1  UNL1        0.0105
      4 C         139.9008  138.6309  160.9300 C.ar    1  UNL1        0.0513
      5 C         139.1567  139.8265  161.4465 C.ar    1  UNL1        0.0147
      6 C         139.0583  140.0681  162.9237 C.ar    1  UNL1        0.0025
      7 C         139.7040  139.1140  163.8843 C.ar    1  UNL1        0.0138
      8 C         139.6056  139.3555  165.3615 C.ar    1  UNL1        0.0843
      9 C         138.3945  138.8956  166.1176 C.ar    1  UNL1        0.1179
     10 N         138.2962  139.1371  167.5947 N.ar    1  UNL1       -0.2248
     11 C         139.4089  139.8385  168.3158 C.ar    1  UNL1        0.1633
     12 C         140.6200  140.2984  167.5597 C.ar    1  UNL1        0.1797
     13 N         141.8655  141.0107  167.9969 N.ar    1  UNL1       -0.2222
     14 C         142.7337  141.2094  166.7899 C.ar    1  UNL1        0.1196
     15 C         142.0247  140.6200  165.6068 C.ar    1  UNL1        0.1023
     16 N         140.7183  140.0569  166.0825 N.ar    1  UNL1       -0.2851
     17 N         139.3104  140.0800  169.7930 N.pl3   1  UNL1       -0.3173
     18 H         138.8914  139.4057  170.3752 H       1  UNL1        0.1482
     19 C         139.8504  141.3489  170.3831 C.3     1  UNL1        0.0706
     20 C         140.8746  142.0615  171.2157 C.3     1  UNL1        0.0212
     21 C         139.7613  142.8342  170.5727 C.3     1  UNL1        0.0212
     22 N         139.9992  138.3893  159.4529 N.am    1  UNL1       -0.2680
     23 C         141.3045  138.5983  158.7440 C.2     1  UNL1        0.3092
     24 O         142.5114  139.0489  159.5123 O.2     1  UNL1       -0.2521
     25 N         141.4029  138.3568  157.2669 N.am    1  UNL1       -0.2533
     26 H         139.2070  138.0936  158.9486 H       1  UNL1        0.1564
     27 H         140.6107  138.0611  156.7627 H       1  UNL1        0.1578
     28 C         142.7083  138.5658  156.5580 C.ar    1  UNL1        0.1380
     29 C         143.4066  139.8792  156.3657 C.ar    1  UNL1        0.0509
     30 C         144.6743  139.6233  155.6059 C.ar    1  UNL1        0.0810
     31 N         144.7594  138.1516  155.3286 N.ar    1  UNL1       -0.1683
     32 N         143.5443  137.4980  155.9171 N.ar    1  UNL1       -0.2162
     33 C         143.2219  136.0338  155.8724 C.ar    1  UNL1        0.0842
     34 C         142.7657  135.4051  154.5892 C.ar    1  UNL1        0.0192
     35 C         142.4432  133.9408  154.5445 C.ar    1  UNL1        0.0015
     36 C         142.5771  133.1052  155.7831 C.ar    1  UNL1        0.0001
     37 C         143.0333  133.7340  157.0663 C.ar    1  UNL1        0.0015
     38 C         143.3557  135.1982  157.1110 C.ar    1  UNL1        0.0192
     39 C         145.6803  140.6575  155.1953 C.3     1  UNL1        0.0372
     40 C         145.7140  141.1823  156.6001 C.3     1  UNL1        0.0060
     41 C         145.6466  140.1325  153.7905 C.3     1  UNL1        0.0060
     42 C         146.6863  141.6916  154.7847 C.3     1  UNL1        0.0060
@<TRIPOS>BOND
     1     1     2    1
     2     2     3   ar
     3     3     4   ar
     4     4    22    1
     5    22    23   am
     6    23    24    2
     7    23    25   am
     8    25    28    1
     9    28    29   ar
    10    29    30   ar
    11    30    39    1
    12    39    40    1
    13    39    41    1
    14    39    42    1
    15    30    31   ar
    16    31    32   ar
    17    32    33    1
    18    33    34   ar
    19    34    35   ar
    20    35    36   ar
    21    36    37   ar
    22    37    38   ar
    23     4     5   ar
    24     5     6   ar
    25     6     7   ar
    26     7     8    1
    27     8     9   ar
    28     9    10   ar
    29    10    11   ar
    30    11    17    1
    31    17    19    1
    32    19    20    1
    33    20    21    1
    34    11    12   ar
    35    12    13   ar
    36    13    14   ar
    37    14    15   ar
    38    15    16   ar
    39     7     2   ar
    40    16     8   ar
    41    32    28   ar
    42    38    33   ar
    43    21    19    1
    44    16    12   ar
    45    22    26    1
    46    25    27    1
    47    17    18    1
@<TRIPOS>MOLECULE
*****
 42 47 0 0 0
SMALL
GASTEIGER

@<TRIPOS>ATOM
      1 C         141.4126  137.0782  164.4444 C.3     1  UNL1        0.0311
      2 C         141.0409  138.1081  163.4192 C.ar    1  UNL1       -0.0192
      3 C         140.9772  137.7332  161.9683 C.ar    1  UNL1        0.0105
      4 C         140.6055  138.7632  160.9430 C.ar    1  UNL1        0.0513
      5 C         140.2975  140.1681  161.3689 C.ar    1  UNL1        0.0147
      6 C         140.3612  140.5431  162.8199 C.ar    1  UNL1        0.0025
      7 C         140.7329  139.5131  163.8451 C.ar    1  UNL1        0.0138
      8 C         140.7966  139.8880  165.2961 C.ar    1  UNL1        0.0843
      9 C         141.9954  140.6134  165.8313 C.ar    1  UNL1        0.1179
     10 N         142.0591  140.9883  167.2823 N.ar    1  UNL1       -0.2248
     11 C         140.9240  140.6377  168.1981 C.ar    1  UNL1        0.1633
     12 C         139.7252  139.9122  167.6628 C.ar    1  UNL1        0.1797
     13 N         138.4633  139.4372  168.3202 N.ar    1  UNL1       -0.2222
     14 C         137.6197  138.7688  167.2754 C.ar    1  UNL1        0.1196
     15 C         138.3602  138.8306  165.9724 C.ar    1  UNL1        0.1023
     16 N         139.6615  139.5374  166.2118 N.ar    1  UNL1       -0.2851
     17 N         140.9877  141.0127  169.6491 N.pl3   1  UNL1       -0.3173
     18 H         141.4059  140.4012  170.2976 H       1  UNL1        0.1482
     19 C         140.4144  142.3191  170.1121 C.3     1  UNL1        0.0706
     20 C         140.3554  143.8155  170.0252 C.3     1  UNL1        0.0212
     21 C         139.4804  143.0857  171.0008 C.3     1  UNL1        0.0212
     22 N         140.5419  138.3883  159.4921 N.am    1  UNL1       -0.2680
     23 C         141.7443  138.5766  158.6153 C.2     1  UNL1        0.3092
     24 O         143.0104  139.1398  159.1896 O.2     1  UNL1       -0.2521
     25 N         141.6806  138.2017  157.1644 N.am    1  UNL1       -0.2533
     26 H         139.7108  138.0187  159.1152 H       1  UNL1        0.1564
     27 H         140.8496  137.8321  156.7875 H       1  UNL1        0.1578
     28 C         142.8831  138.3900  156.2876 C.ar    1  UNL1        0.1380
     29 C         143.5428  139.6978  155.9649 C.ar    1  UNL1        0.0509
     30 C         144.7043  139.4196  155.0575 C.ar    1  UNL1        0.0810
     31 N         144.7624  137.9398  154.8193 N.ar    1  UNL1       -0.1683
     32 N         143.6368  137.3034  155.5796 N.ar    1  UNL1       -0.2162
     33 C         143.3205  135.8378  155.6240 C.ar    1  UNL1        0.0842
     34 C         143.5154  135.0667  156.8958 C.ar    1  UNL1        0.0192
     35 C         143.1991  133.6011  156.9402 C.ar    1  UNL1        0.0015
     36 C         142.6878  132.9066  155.7128 C.ar    1  UNL1        0.0001
     37 C         142.4930  133.6777  154.4411 C.ar    1  UNL1        0.0015
     38 C         142.8093  135.1433  154.3966 C.ar    1  UNL1        0.0192
     39 C         145.6430  140.4418  154.4881 C.3     1  UNL1        0.0372
     40 C         145.3220  139.9648  153.1027 C.3     1  UNL1        0.0060
     41 C         145.9640  140.9187  155.8736 C.3     1  UNL1        0.0060
     42 C         146.5817  141.4639  153.9188 C.3     1  UNL1        0.0060
@<TRIPOS>BOND
     1     1     2    1
     2     2     3   ar
     3     3     4   ar
     4     4    22    1
     5    22    23   am
     6    23    24    2
     7    23    25   am
     8    25    28    1
     9    28    29   ar
    10    29    30   ar
    11    30    39    1
    12    39    40    1
    13    39    41    1
    14    39    42    1
    15    30    31   ar
    16    31    32   ar
    17    32    33    1
    18    33    34   ar
    19    34    35   ar
    20    35    36   ar
    21    36    37   ar
    22    37    38   ar
    23     4     5   ar
    24     5     6   ar
    25     6     7   ar
    26     7     8    1
    27     8     9   ar
    28     9    10   ar
    29    10    11   ar
    30    11    17    1
    31    17    19    1
    32    19    20    1
    33    20    21    1
    34    11    12   ar
    35    12    13   ar
    36    13    14   ar
    37    14    15   ar
    38    15    16   ar
    39     7     2   ar
    40    16     8   ar
    41    32    28   ar
    42    38    33   ar
    43    21    19    1
    44    16    12   ar
    45    22    26    1
    46    25    27    1
    47    17    18    1
@<TRIPOS>MOLECULE
*****
 42 47 0 0 0
SMALL
GASTEIGER

@<TRIPOS>ATOM
      1 C         142.2172  142.6900  158.0017 C.3     1  UNL1        0.0311
      2 C         141.0774  142.3766  158.9252 C.ar    1  UNL1       -0.0192
      3 C         141.2388  141.3303  159.9877 C.ar    1  UNL1        0.0105
      4 C         140.0990  141.0170  160.9112 C.ar    1  UNL1        0.0513
      5 C         138.7979  141.7502  160.7721 C.ar    1  UNL1        0.0147
      6 C         138.6364  142.7967  159.7096 C.ar    1  UNL1        0.0025
      7 C         139.7762  143.1099  158.7861 C.ar    1  UNL1        0.0138
      8 C         139.6148  144.1563  157.7236 C.ar    1  UNL1        0.0843
      9 C         140.1743  145.5319  157.9346 C.ar    1  UNL1        0.1179
     10 N         140.0130  146.5783  156.8721 N.ar    1  UNL1       -0.2248
     11 C         139.2921  146.2491  155.5985 C.ar    1  UNL1        0.1633
     12 C         138.7325  144.8735  155.3875 C.ar    1  UNL1        0.1797
     13 N         137.9796  144.2608  154.2440 N.ar    1  UNL1       -0.2222
     14 C         137.6756  142.8356  154.5998 C.ar    1  UNL1        0.1196
     15 C         138.2407  142.5676  155.9632 C.ar    1  UNL1        0.1023
     16 N         138.8939  143.8271  156.4501 N.ar    1  UNL1       -0.2851
     17 N         139.1307  147.2956  154.5360 N.pl3   1  UNL1       -0.3173
     18 H         139.0876  147.0324  153.5883 H       1  UNL1        0.1482
     19 C         139.0351  148.7431  154.9174 C.3     1  UNL1        0.0706
     20 C         139.3416  150.1840  154.6347 C.3     1  UNL1        0.0212
     21 C         138.5631  149.8094  155.8609 C.3     1  UNL1        0.0212
     22 N         140.2604  139.9707  161.9737 N.am    1  UNL1       -0.2680
     23 C         140.5990  140.3739  163.3783 C.2     1  UNL1        0.3092
     24 O         140.7762  141.8236  163.7203 O.2     1  UNL1       -0.2521
     25 N         140.7604  139.3276  164.4407 N.am    1  UNL1       -0.2533
     26 H         140.1441  139.0192  161.7492 H       1  UNL1        0.1564
     27 H         140.6441  138.3761  164.2163 H       1  UNL1        0.1578
     28 C         141.0990  139.7308  165.8454 C.ar    1  UNL1        0.1380
     29 C         140.2489  139.4973  167.0588 C.ar    1  UNL1        0.0509
     30 C         140.9716  140.0605  168.2464 C.ar    1  UNL1        0.0810
     31 N         142.2684  140.6421  167.7669 N.ar    1  UNL1       -0.1683
     32 N         142.3472  140.4383  166.2830 N.ar    1  UNL1       -0.2162
     33 C         143.4759  140.8668  165.3929 C.ar    1  UNL1        0.0842
     34 C         143.8587  142.3149  165.3116 C.ar    1  UNL1        0.0192
     35 C         144.9875  142.7434  164.4215 C.ar    1  UNL1        0.0015
     36 C         145.7335  141.7238  163.6126 C.ar    1  UNL1        0.0001
     37 C         145.3507  140.2758  163.6940 C.ar    1  UNL1        0.0015
     38 C         144.2219  139.8473  164.5841 C.ar    1  UNL1        0.0192
     39 C         140.4832  140.0449  169.6647 C.3     1  UNL1        0.0372
     40 C         139.0829  140.2881  169.1851 C.3     1  UNL1        0.0060
     41 C         141.8836  139.8016  170.1442 C.3     1  UNL1        0.0060
     42 C         139.9949  140.0292  171.0829 C.3     1  UNL1        0.0060
@<TRIPOS>BOND
     1     1     2    1
     2     2     3   ar
     3     3     4   ar
     4     4    22    1
     5    22    23   am
     6    23    24    2
     7    23    25   am
     8    25    28    1
     9    28    29   ar
    10    29    30   ar
    11    30    39    1
    12    39    40    1
    13    39    41    1
    14    39    42    1
    15    30    31   ar
    16    31    32   ar
    17    32    33    1
    18    33    34   ar
    19    34    35   ar
    20    35    36   ar
    21    36    37   ar
    22    37    38   ar
    23     4     5   ar
    24     5     6   ar
    25     6     7   ar
    26     7     8    1
    27     8     9   ar
    28     9    10   ar
    29    10    11   ar
    30    11    17    1
    31    17    19    1
    32    19    20    1
    33    20    21    1
    34    11    12   ar
    35    12    13   ar
    36    13    14   ar
    37    14    15   ar
    38    15    16   ar
    39     7     2   ar
    40    16     8   ar
    41    32    28   ar
    42    38    33   ar
    43    21    19    1
    44    16    12   ar
    45    22    26    1
    46    25    27    1
    47    17    18    1
@<TRIPOS>MOLECULE
*****
 42 47 0 0 0
SMALL
GASTEIGER

@<TRIPOS>ATOM
      1 C         141.7169  141.6047  157.7525 C.3     1  UNL1        0.0311
      2 C         142.5077  141.1271  158.9343 C.ar    1  UNL1       -0.0192
      3 C         142.6203  141.9865  160.1583 C.ar    1  UNL1        0.0105
      4 C         143.4112  141.5088  161.3401 C.ar    1  UNL1        0.0513
      5 C         144.0893  140.1716  161.2976 C.ar    1  UNL1        0.0147
      6 C         143.9767  139.3120  160.0734 C.ar    1  UNL1        0.0025
      7 C         143.1859  139.7897  158.8918 C.ar    1  UNL1        0.0138
      8 C         143.0733  138.9303  157.6676 C.ar    1  UNL1        0.0843
      9 C         142.1306  137.7636  157.6545 C.ar    1  UNL1        0.1179
     10 N         142.0179  136.9041  156.4304 N.ar    1  UNL1       -0.2248
     11 C         142.8480  137.2113  155.2193 C.ar    1  UNL1        0.1633
     12 C         143.7906  138.3780  155.2324 C.ar    1  UNL1        0.1797
     13 N         144.7292  138.9216  154.1963 N.ar    1  UNL1       -0.2222
     14 C         145.4219  140.1171  154.7801 C.ar    1  UNL1        0.1196
     15 C         144.9115  140.3123  156.1770 C.ar    1  UNL1        0.1023
     16 N         143.9033  139.2374  156.4565 N.ar    1  UNL1       -0.2851
     17 N         142.7353  136.3517  153.9951 N.pl3   1  UNL1       -0.3173
     18 H         142.7862  136.7598  153.1006 H       1  UNL1        0.1482
     19 C         142.5450  134.8703  154.1338 C.3     1  UNL1        0.0706
     20 C         142.1897  133.5440  153.5299 C.3     1  UNL1        0.0212
     21 C         142.5706  133.6308  154.9781 C.3     1  UNL1        0.0212
     22 N         143.5238  142.3683  162.5642 N.am    1  UNL1       -0.2680
     23 C         142.7649  142.0071  163.8067 C.2     1  UNL1        0.3092
     24 O         141.8934  140.7864  163.8249 O.2     1  UNL1       -0.2521
     25 N         142.8775  142.8666  165.0308 N.am    1  UNL1       -0.2533
     26 H         144.0958  143.1695  162.5522 H       1  UNL1        0.1564
     27 H         143.4495  143.6678  165.0188 H       1  UNL1        0.1578
     28 C         142.1186  142.5054  166.2733 C.ar    1  UNL1        0.1380
     29 C         142.7169  142.0414  167.5681 C.ar    1  UNL1        0.0509
     30 C         141.5963  141.7941  168.5341 C.ar    1  UNL1        0.0810
     31 N         140.3055  142.1052  167.8363 N.ar    1  UNL1       -0.1683
     32 N         140.6284  142.5449  166.4390 N.ar    1  UNL1       -0.2162
     33 C         139.6352  142.9524  165.3913 C.ar    1  UNL1        0.0842
     34 C         138.6327  141.9598  164.8817 C.ar    1  UNL1        0.0192
     35 C         137.6395  142.3673  163.8341 C.ar    1  UNL1        0.0015
     36 C         137.6489  143.7675  163.2959 C.ar    1  UNL1        0.0001
     37 C         138.6515  144.7601  163.8055 C.ar    1  UNL1        0.0015
     38 C         139.6446  144.3526  164.8532 C.ar    1  UNL1        0.0192
     39 C         141.7411  141.3190  169.9496 C.3     1  UNL1        0.0372
     40 C         141.0691  140.0284  169.5851 C.3     1  UNL1        0.0060
     41 C         142.4132  142.6096  170.3139 C.3     1  UNL1        0.0060
     42 C         141.8860  140.8440  171.3650 C.3     1  UNL1        0.0060
@<TRIPOS>BOND
     1     1     2    1
     2     2     3   ar
     3     3     4   ar
     4     4    22    1
     5    22    23   am
     6    23    24    2
     7    23    25   am
     8    25    28    1
     9    28    29   ar
    10    29    30   ar
    11    30    39    1
    12    39    40    1
    13    39    41    1
    14    39    42    1
    15    30    31   ar
    16    31    32   ar
    17    32    33    1
    18    33    34   ar
    19    34    35   ar
    20    35    36   ar
    21    36    37   ar
    22    37    38   ar
    23     4     5   ar
    24     5     6   ar
    25     6     7   ar
    26     7     8    1
    27     8     9   ar
    28     9    10   ar
    29    10    11   ar
    30    11    17    1
    31    17    19    1
    32    19    20    1
    33    20    21    1
    34    11    12   ar
    35    12    13   ar
    36    13    14   ar
    37    14    15   ar
    38    15    16   ar
    39     7     2   ar
    40    16     8   ar
    41    32    28   ar
    42    38    33   ar
    43    21    19    1
    44    16    12   ar
    45    22    26    1
    46    25    27    1
    47    17    18    1
@<TRIPOS>MOLECULE
*****
 42 47 0 0 0
SMALL
GASTEIGER

@<TRIPOS>ATOM
      1 C         142.5767  143.7088  157.7270 C.3     1  UNL1        0.0311
      2 C         143.0212  143.3113  159.1034 C.ar    1  UNL1       -0.0192
      3 C         142.1680  143.6421  160.2918 C.ar    1  UNL1        0.0105
      4 C         142.6126  143.2446  161.6682 C.ar    1  UNL1        0.0513
      5 C         143.9103  142.5163  161.8560 C.ar    1  UNL1        0.0147
      6 C         144.7636  142.1855  160.6675 C.ar    1  UNL1        0.0025
      7 C         144.3191  142.5830  159.2912 C.ar    1  UNL1        0.0138
      8 C         145.1723  142.2522  158.1027 C.ar    1  UNL1        0.0843
      9 C         146.4066  143.0558  157.8185 C.ar    1  UNL1        0.1179
     10 N         147.2597  142.7251  156.6301 N.ar    1  UNL1       -0.2248
     11 C         146.8787  141.5906  155.7256 C.ar    1  UNL1        0.1633
     12 C         145.6444  140.7870  156.0097 C.ar    1  UNL1        0.1797
     13 N         145.0211  139.6207  155.3018 N.ar    1  UNL1       -0.2222
     14 C         143.7827  139.2306  156.0529 C.ar    1  UNL1        0.1196
     15 C         143.6406  140.1559  157.2249 C.ar    1  UNL1        0.1023
     16 N         144.7912  141.1178  157.1983 N.ar    1  UNL1       -0.2851
     17 N         147.7320  141.2599  154.5370 N.pl3   1  UNL1       -0.3173
     18 H         147.3671  140.7092  153.8071 H       1  UNL1        0.1482
     19 C         149.1411  141.7683  154.4607 C.3     1  UNL1        0.0706
     20 C         150.5479  141.7799  154.9810 C.3     1  UNL1        0.0212
     21 C         150.1750  142.6372  153.8081 C.3     1  UNL1        0.0212
     22 N         141.7594  143.5754  162.8567 N.am    1  UNL1       -0.2680
     23 C         141.4387  142.5151  163.8683 C.2     1  UNL1        0.3092
     24 O         141.9714  141.1241  163.6912 O.2     1  UNL1       -0.2521
     25 N         140.5855  142.8459  165.0567 N.am    1  UNL1       -0.2533
     26 H         141.4098  144.4884  162.9729 H       1  UNL1        0.1564
     27 H         140.2360  143.7589  165.1729 H       1  UNL1        0.1578
     28 C         140.2649  141.7857  166.0683 C.ar    1  UNL1        0.1380
     29 C         140.6562  141.8014  167.5161 C.ar    1  UNL1        0.0509
     30 C         140.1299  140.5491  168.1522 C.ar    1  UNL1        0.0810
     31 N         139.4132  139.7594  167.0974 N.ar    1  UNL1       -0.1683
     32 N         139.4966  140.5236  165.8094 N.ar    1  UNL1       -0.2162
     33 C         138.9141  140.1002  164.4936 C.ar    1  UNL1        0.0842
     34 C         139.2118  138.7358  163.9459 C.ar    1  UNL1        0.0192
     35 C         138.6292  138.3123  162.6301 C.ar    1  UNL1        0.0015
     36 C         137.7490  139.2533  161.8620 C.ar    1  UNL1        0.0001
     37 C         137.4513  140.6176  162.4097 C.ar    1  UNL1        0.0015
     38 C         138.0339  141.0411  163.7255 C.ar    1  UNL1        0.0192
     39 C         140.2917  140.1556  169.5907 C.3     1  UNL1        0.0372
     40 C         141.7272  139.8047  169.3331 C.3     1  UNL1        0.0060
     41 C         138.8562  140.5064  169.8481 C.3     1  UNL1        0.0060
     42 C         140.4535  139.7621  171.0290 C.3     1  UNL1        0.0060
@<TRIPOS>BOND
     1     1     2    1
     2     2     3   ar
     3     3     4   ar
     4     4    22    1
     5    22    23   am
     6    23    24    2
     7    23    25   am
     8    25    28    1
     9    28    29   ar
    10    29    30   ar
    11    30    39    1
    12    39    40    1
    13    39    41    1
    14    39    42    1
    15    30    31   ar
    16    31    32   ar
    17    32    33    1
    18    33    34   ar
    19    34    35   ar
    20    35    36   ar
    21    36    37   ar
    22    37    38   ar
    23     4     5   ar
    24     5     6   ar
    25     6     7   ar
    26     7     8    1
    27     8     9   ar
    28     9    10   ar
    29    10    11   ar
    30    11    17    1
    31    17    19    1
    32    19    20    1
    33    20    21    1
    34    11    12   ar
    35    12    13   ar
    36    13    14   ar
    37    14    15   ar
    38    15    16   ar
    39     7     2   ar
    40    16     8   ar
    41    32    28   ar
    42    38    33   ar
    43    21    19    1
    44    16    12   ar
    45    22    26    1
    46    25    27    1
    47    17    18    1
@<TRIPOS>MOLECULE
*****
 42 47 0 0 0
SMALL
GASTEIGER

@<TRIPOS>ATOM
      1 C         141.8109  143.0778  162.7646 C.3     1  UNL1        0.0311
      2 C         142.6476  141.8844  162.4101 C.ar    1  UNL1       -0.0192
      3 C         142.8306  141.4970  160.9727 C.ar    1  UNL1        0.0105
      4 C         143.6675  140.3035  160.6182 C.ar    1  UNL1        0.0513
      5 C         144.3212  139.4977  161.7013 C.ar    1  UNL1        0.0147
      6 C         144.1382  139.8851  163.1389 C.ar    1  UNL1        0.0025
      7 C         143.3014  141.0785  163.4932 C.ar    1  UNL1        0.0138
      8 C         143.1184  141.4660  164.9307 C.ar    1  UNL1        0.0843
      9 C         144.0010  142.5127  165.5435 C.ar    1  UNL1        0.1179
     10 N         143.8180  142.9002  166.9809 N.ar    1  UNL1       -0.2248
     11 C         142.7524  142.2411  167.8057 C.ar    1  UNL1        0.1633
     12 C         141.8698  141.1944  167.1929 C.ar    1  UNL1        0.1797
     13 N         140.7436  140.3775  167.7534 N.ar    1  UNL1       -0.2222
     14 C         140.2305  139.4851  166.6624 C.ar    1  UNL1        0.1196
     15 C         141.0397  139.7505  165.4275 C.ar    1  UNL1        0.1023
     16 N         142.0529  140.8069  165.7554 N.ar    1  UNL1       -0.2851
     17 N         142.5694  142.6287  169.2432 N.pl3   1  UNL1       -0.3173
     18 H         143.3237  142.5578  169.8719 H       1  UNL1        0.1482
     19 C         141.2373  143.1242  169.7226 C.3     1  UNL1        0.0706
     20 C         140.2698  144.2508  169.9345 C.3     1  UNL1        0.0212
     21 C         139.8975  142.8558  170.3413 C.3     1  UNL1        0.0212
     22 N         143.8504  139.9160  159.1808 N.am    1  UNL1       -0.2680
     23 C         143.1565  138.7024  158.6369 C.2     1  UNL1        0.3092
     24 O         142.2796  137.8764  159.5306 O.2     1  UNL1       -0.2521
     25 N         143.3395  138.3150  157.1995 N.am    1  UNL1       -0.2533
     26 H         144.4260  140.4582  158.5943 H       1  UNL1        0.1564
     27 H         143.9151  138.8571  156.6130 H       1  UNL1        0.1578
     28 C         142.6456  137.1014  156.6557 C.ar    1  UNL1        0.1380
     29 C         143.1765  135.6987  156.6766 C.ar    1  UNL1        0.0509
     30 C         142.1580  134.8079  156.0293 C.ar    1  UNL1        0.0810
     31 N         140.9976  135.6600  155.6082 N.ar    1  UNL1       -0.1683
     32 N         141.2990  137.0775  155.9953 N.ar    1  UNL1       -0.2162
     33 C         140.4098  138.2629  155.7629 C.ar    1  UNL1        0.0842
     34 C         139.7878  138.9738  156.9282 C.ar    1  UNL1        0.0192
     35 C         138.8986  140.1593  156.6958 C.ar    1  UNL1        0.0015
     36 C         138.6314  140.6339  155.2981 C.ar    1  UNL1        0.0001
     37 C         139.2534  139.9230  154.1328 C.ar    1  UNL1        0.0015
     38 C         140.1426  138.7376  154.3652 C.ar    1  UNL1        0.0192
     39 C         142.2787  133.3251  155.8368 C.3     1  UNL1        0.0372
     40 C         143.1119  133.2315  157.0806 C.3     1  UNL1        0.0060
     41 C         141.4455  133.4188  154.5929 C.3     1  UNL1        0.0060
     42 C         142.3994  131.8424  155.6442 C.3     1  UNL1        0.0060
@<TRIPOS>BOND
     1     1     2    1
     2     2     3   ar
     3     3     4   ar
     4     4    22    1
     5    22    23   am
     6    23    24    2
     7    23    25   am
     8    25    28    1
     9    28    29   ar
    10    29    30   ar
    11    30    39    1
    12    39    40    1
    13    39    41    1
    14    39    42    1
    15    30    31   ar
    16    31    32   ar
    17    32    33    1
    18    33    34   ar
    19    34    35   ar
    20    35    36   ar
    21    36    37   ar
    22    37    38   ar
    23     4     5   ar
    24     5     6   ar
    25     6     7   ar
    26     7     8    1
    27     8     9   ar
    28     9    10   ar
    29    10    11   ar
    30    11    17    1
    31    17    19    1
    32    19    20    1
    33    20    21    1
    34    11    12   ar
    35    12    13   ar
    36    13    14   ar
    37    14    15   ar
    38    15    16   ar
    39     7     2   ar
    40    16     8   ar
    41    32    28   ar
    42    38    33   ar
    43    21    19    1
    44    16    12   ar
    45    22    26    1
    46    25    27    1
    47    17    18    1
@<TRIPOS>MOLECULE
*****
 42 47 0 0 0
SMALL
GASTEIGER

@<TRIPOS>ATOM
      1 C         141.7855  142.2783  157.4177 C.3     1  UNL1        0.0311
      2 C         142.1571  141.2469  158.4414 C.ar    1  UNL1       -0.0192
      3 C         141.1828  140.8750  159.5195 C.ar    1  UNL1        0.0105
      4 C         141.5545  139.8435  160.5432 C.ar    1  UNL1        0.0513
      5 C         142.9006  139.1840  160.4888 C.ar    1  UNL1        0.0147
      6 C         143.8750  139.5558  159.4107 C.ar    1  UNL1        0.0025
      7 C         143.5033  140.5873  158.3870 C.ar    1  UNL1        0.0138
      8 C         144.4776  140.9592  157.3089 C.ar    1  UNL1        0.0843
      9 C         145.4906  142.0382  157.5531 C.ar    1  UNL1        0.1179
     10 N         146.4649  142.4101  156.4750 N.ar    1  UNL1       -0.2248
     11 C         146.4264  141.7030  155.1527 C.ar    1  UNL1        0.1633
     12 C         145.4134  140.6240  154.9085 C.ar    1  UNL1        0.1797
     13 N         145.1372  139.7581  153.7152 N.ar    1  UNL1       -0.2222
     14 C         143.9921  138.8511  154.0558 C.ar    1  UNL1        0.1196
     15 C         143.5606  139.1563  155.4596 C.ar    1  UNL1        0.1023
     16 N         144.4391  140.2521  155.9866 N.ar    1  UNL1       -0.2851
     17 N         147.4008  142.0750  154.0746 N.pl3   1  UNL1       -0.3173
     18 H         147.0723  142.3792  153.1978 H       1  UNL1        0.1482
     19 C         148.8756  141.9834  154.3325 C.3     1  UNL1        0.0706
     20 C         150.2893  142.2002  153.8804 C.3     1  UNL1        0.0212
     21 C         150.0163  141.6080  155.2313 C.3     1  UNL1        0.0212
     22 N         140.5802  139.4717  161.6213 N.am    1  UNL1       -0.2680
     23 C         140.7271  140.0504  162.9973 C.2     1  UNL1        0.3092
     24 O         141.8485  141.0011  163.2952 O.2     1  UNL1       -0.2521
     25 N         139.7528  139.6786  164.0754 N.am    1  UNL1       -0.2533
     26 H         139.8442  138.8477  161.4257 H       1  UNL1        0.1564
     27 H         139.0168  139.0546  163.8798 H       1  UNL1        0.1578
     28 C         139.8998  140.2574  165.4515 C.ar    1  UNL1        0.1380
     29 C         140.2465  139.4953  166.6960 C.ar    1  UNL1        0.0509
     30 C         140.2868  140.4667  167.8382 C.ar    1  UNL1        0.0810
     31 N         139.9650  141.8292  167.2996 N.ar    1  UNL1       -0.1683
     32 N         139.7258  141.6998  165.8245 N.ar    1  UNL1       -0.2162
     33 C         139.3743  142.8167  164.8870 C.ar    1  UNL1        0.0842
     34 C         138.0197  142.8579  164.2440 C.ar    1  UNL1        0.0192
     35 C         137.6682  143.9749  163.3065 C.ar    1  UNL1        0.0015
     36 C         138.6713  145.0507  163.0120 C.ar    1  UNL1        0.0001
     37 C         140.0259  145.0094  163.6551 C.ar    1  UNL1        0.0015
     38 C         140.3773  143.8925  164.5925 C.ar    1  UNL1        0.0192
     39 C         140.5949  140.1340  169.2681 C.3     1  UNL1        0.0372
     40 C         141.9784  139.7113  168.8717 C.3     1  UNL1        0.0060
     41 C         139.2113  140.5568  169.6645 C.3     1  UNL1        0.0060
     42 C         140.9029  139.8014  170.6979 C.3     1  UNL1        0.0060
@<TRIPOS>BOND
     1     1     2    1
     2     2     3   ar
     3     3     4   ar
     4     4    22    1
     5    22    23   am
     6    23    24    2
     7    23    25   am
     8    25    28    1
     9    28    29   ar
    10    29    30   ar
    11    30    39    1
    12    39    40    1
    13    39    41    1
    14    39    42    1
    15    30    31   ar
    16    31    32   ar
    17    32    33    1
    18    33    34   ar
    19    34    35   ar
    20    35    36   ar
    21    36    37   ar
    22    37    38   ar
    23     4     5   ar
    24     5     6   ar
    25     6     7   ar
    26     7     8    1
    27     8     9   ar
    28     9    10   ar
    29    10    11   ar
    30    11    17    1
    31    17    19    1
    32    19    20    1
    33    20    21    1
    34    11    12   ar
    35    12    13   ar
    36    13    14   ar
    37    14    15   ar
    38    15    16   ar
    39     7     2   ar
    40    16     8   ar
    41    32    28   ar
    42    38    33   ar
    43    21    19    1
    44    16    12   ar
    45    22    26    1
    46    25    27    1
    47    17    18    1
