@<TRIPOS>MOLECULE
*****
 45 51 0 0 0
SMALL
GASTEIGER

@<TRIPOS>ATOM
      1 C         140.6628  141.4946  164.7143 C.ar    1  UNL1        0.0907
      2 C         141.4023  142.5185  165.5235 C.ar    1  UNL1        0.1496
      3 O         141.8601  143.6023  164.5930 O.2     1  UNL1       -0.4533
      4 C         141.4035  143.2482  163.2087 C.ar    1  UNL1        0.1467
      5 C         141.5659  143.9436  161.8896 C.ar    1  UNL1        0.0536
      6 C         140.9883  143.3364  160.6455 C.ar    1  UNL1        0.0730
      7 C         140.2484  142.0338  160.7206 C.ar    1  UNL1        0.0327
      8 C         140.0859  141.3384  162.0397 C.ar    1  UNL1        0.0061
      9 C         140.6635  141.9456  163.2837 C.ar    1  UNL1        0.0420
     10 C         139.6708  141.4265  159.4765 C.ar    1  UNL1        0.0827
     11 C         138.4188  141.9943  158.8763 C.ar    1  UNL1        0.0207
     12 C         137.8412  141.3871  157.6323 C.ar    1  UNL1        0.0223
     13 C         138.5156  140.2122  156.9884 C.ar    1  UNL1        0.1021
     14 N         137.9381  139.6049  155.7443 N.ar    1  UNL1       -0.2235
     15 C         138.6125  138.4300  155.1003 C.ar    1  UNL1        0.1828
     16 N         139.8645  137.8623  155.7005 N.ar    1  UNL1       -0.2877
     17 C         140.7438  136.7178  155.2920 C.ar    1  UNL1        0.0676
     18 C         140.6686  135.7538  154.1452 C.ar    1  UNL1        0.0177
     19 C         141.7143  134.6898  153.9899 C.ar    1  UNL1        0.0038
     20 C         142.8354  134.5896  154.9815 C.ar    1  UNL1        0.0297
     21 C         142.9106  135.5536  156.1283 C.ar    1  UNL1        0.1415
     22 F         144.0317  135.4534  157.1199 F       1  UNL1       -0.2041
     23 C         141.8649  136.6177  156.2836 C.ar    1  UNL1        0.0451
     24 C         141.6784  137.7003  157.3049 C.ar    1  UNL1        0.0228
     25 C         140.4421  138.4695  156.9445 C.ar    1  UNL1        0.0846
     26 C         139.7677  139.6445  157.5885 C.ar    1  UNL1        0.1149
     27 N         140.3452  140.2516  158.8325 N.ar    1  UNL1       -0.2423
     28 C         141.6419  142.4676  167.0034 C.ar    1  UNL1        0.0349
     29 C         143.0005  142.1131  167.5314 C.ar    1  UNL1        0.0053
     30 C         143.2402  142.0622  169.0112 C.ar    1  UNL1        0.0297
     31 C         142.1213  142.3657  169.9630 C.ar    1  UNL1        0.1401
     32 F         142.3610  142.3147  171.4429 F       1  UNL1       -0.2042
     33 C         140.7628  142.7201  169.4351 C.ar    1  UNL1        0.0297
     34 C         140.5231  142.7711  167.9552 C.ar    1  UNL1        0.0053
     35 C         138.0036  139.0181  166.3099 C.3     1  UNL1        0.1109
     36 N         138.6333  140.2727  165.7813 N.am    1  UNL1       -0.2991
     37 C         140.0331  140.2400  165.2430 C.2     1  UNL1        0.2490
     38 O         140.8030  138.9528  165.2333 O.2     1  UNL1       -0.2700
     39 H         138.1280  141.1175  165.7876 H       1  UNL1        0.1498
     40 N         141.1508  144.0318  159.3264 N.pl3   1  UNL1       -0.1924
     41 C         140.2858  145.2096  158.9880 C.3     1  UNL1        0.1388
     42 S         142.1783  143.5493  158.3458 S.O2    1  UNL1        0.0588
     43 C         143.2056  143.0669  157.3651 C.3     1  UNL1        0.1999
     44 O         143.2211  143.5795  159.4235 O.2     1  UNL1       -0.1542
     45 O         141.1354  143.5192  157.2681 O.2     1  UNL1       -0.1542
@<TRIPOS>BOND
     1    35    36    1
     2    36    37   am
     3    37    38    2
     4    37     1    1
     5     1     2   ar
     6     2    28    1
     7    28    29   ar
     8    29    30   ar
     9    30    31   ar
    10    31    32    1
    11    31    33   ar
    12    33    34   ar
    13     2     3   ar
    14     3     4   ar
    15     4     5   ar
    16     5     6   ar
    17     6    40    1
    18    40    41    1
    19    40    42    1
    20    42    43    1
    21    42    44    2
    22    42    45    2
    23     6     7   ar
    24     7    10    1
    25    10    11   ar
    26    11    12   ar
    27    12    13   ar
    28    13    14   ar
    29    14    15   ar
    30    15    16   ar
    31    16    17   ar
    32    17    18   ar
    33    18    19   ar
    34    19    20   ar
    35    20    21   ar
    36    21    22    1
    37    21    23   ar
    38    23    24   ar
    39    24    25   ar
    40    25    26   ar
    41    26    27   ar
    42     7     8   ar
    43     8     9   ar
    44     9     1   ar
    45    34    28   ar
    46     9     4   ar
    47    27    10   ar
    48    26    13   ar
    49    25    16   ar
    50    23    17   ar
    51    36    39    1
@<TRIPOS>MOLECULE
*****
 45 51 0 0 0
SMALL
GASTEIGER

@<TRIPOS>ATOM
      1 C         141.3511  139.8935  162.5746 C.ar    1  UNL1        0.0907
      2 C         141.9120  141.1194  163.2323 C.ar    1  UNL1        0.1496
      3 O         142.5557  141.9614  162.1708 O.2     1  UNL1       -0.4533
      4 C         142.3927  141.2559  160.8572 C.ar    1  UNL1        0.1467
      5 C         142.8259  141.6121  159.4660 C.ar    1  UNL1        0.0536
      6 C         142.5147  140.6902  158.3244 C.ar    1  UNL1        0.0730
      7 C         141.7701  139.4122  158.5739 C.ar    1  UNL1        0.0327
      8 C         141.3369  139.0560  159.9651 C.ar    1  UNL1        0.0061
      9 C         141.6481  139.9778  161.1067 C.ar    1  UNL1        0.0420
     10 C         141.4588  138.4903  157.4323 C.ar    1  UNL1        0.0827
     11 C         140.4308  138.8805  156.4120 C.ar    1  UNL1        0.0207
     12 C         140.1195  137.9587  155.2704 C.ar    1  UNL1        0.0223
     13 C         140.8362  136.6467  155.1491 C.ar    1  UNL1        0.1021
     14 N         140.5250  135.7248  154.0074 N.ar    1  UNL1       -0.2235
     15 C         141.2417  134.4127  153.8860 C.ar    1  UNL1        0.1828
     16 N         142.2697  134.0225  154.9063 N.ar    1  UNL1       -0.2877
     17 C         143.1315  132.8029  155.0471 C.ar    1  UNL1        0.0676
     18 C         143.2568  131.5610  154.2152 C.ar    1  UNL1        0.0177
     19 C         144.2261  130.4871  154.6120 C.ar    1  UNL1        0.0038
     20 C         145.0700  130.6552  155.8406 C.ar    1  UNL1        0.0297
     21 C         144.9447  131.8971  156.6724 C.ar    1  UNL1        0.1415
     22 F         145.7887  132.0652  157.9011 F       1  UNL1       -0.2041
     23 C         143.9754  132.9710  156.2757 C.ar    1  UNL1        0.0451
     24 C         143.6352  134.2945  156.8942 C.ar    1  UNL1        0.0228
     25 C         142.5810  134.9443  156.0479 C.ar    1  UNL1        0.0846
     26 C         141.8643  136.2564  156.1693 C.ar    1  UNL1        0.1149
     27 N         142.1756  137.1782  157.3109 N.ar    1  UNL1       -0.2423
     28 C         141.8415  141.4459  164.6946 C.ar    1  UNL1        0.0349
     29 C         142.8213  140.8297  165.6487 C.ar    1  UNL1        0.0053
     30 C         142.7509  141.1562  167.1110 C.ar    1  UNL1        0.0297
     31 C         141.7007  142.0990  167.6192 C.ar    1  UNL1        0.1401
     32 F         141.6302  142.4255  169.0816 F       1  UNL1       -0.2042
     33 C         140.7210  142.7152  166.6651 C.ar    1  UNL1        0.0297
     34 C         140.7914  142.3887  165.2028 C.ar    1  UNL1        0.0053
     35 C         138.8023  137.9761  164.9363 C.3     1  UNL1        0.1109
     36 N         139.5322  139.0907  164.2471 N.am    1  UNL1       -0.2991
     37 C         140.6212  138.7789  163.2638 C.2     1  UNL1        0.2490
     38 O         140.9803  137.3525  162.9698 O.2     1  UNL1       -0.2700
     39 H         139.2965  140.0268  164.4401 H       1  UNL1        0.1498
     40 N         142.9479  141.0464  156.9332 N.pl3   1  UNL1       -0.1924
     41 C         142.2767  142.1721  156.2037 C.3     1  UNL1        0.1388
     42 S         144.0524  140.2768  156.2715 S.O2    1  UNL1        0.0588
     43 C         145.1569  139.5072  155.6098 C.3     1  UNL1        0.1999
     44 O         143.2832  140.2800  154.9837 O.2     1  UNL1       -0.1542
     45 O         144.8216  140.2736  157.5592 O.2     1  UNL1       -0.1542
@<TRIPOS>BOND
     1    35    36    1
     2    36    37   am
     3    37    38    2
     4    37     1    1
     5     1     2   ar
     6     2    28    1
     7    28    29   ar
     8    29    30   ar
     9    30    31   ar
    10    31    32    1
    11    31    33   ar
    12    33    34   ar
    13     2     3   ar
    14     3     4   ar
    15     4     5   ar
    16     5     6   ar
    17     6    40    1
    18    40    41    1
    19    40    42    1
    20    42    43    1
    21    42    44    2
    22    42    45    2
    23     6     7   ar
    24     7    10    1
    25    10    11   ar
    26    11    12   ar
    27    12    13   ar
    28    13    14   ar
    29    14    15   ar
    30    15    16   ar
    31    16    17   ar
    32    17    18   ar
    33    18    19   ar
    34    19    20   ar
    35    20    21   ar
    36    21    22    1
    37    21    23   ar
    38    23    24   ar
    39    24    25   ar
    40    25    26   ar
    41    26    27   ar
    42     7     8   ar
    43     8     9   ar
    44     9     1   ar
    45    34    28   ar
    46     9     4   ar
    47    27    10   ar
    48    26    13   ar
    49    25    16   ar
    50    23    17   ar
    51    36    39    1
@<TRIPOS>MOLECULE
*****
 45 51 0 0 0
SMALL
GASTEIGER

@<TRIPOS>ATOM
      1 C         142.3470  133.8108  155.8720 C.ar    1  UNL1        0.0907
      2 C         141.6514  133.3693  154.6185 C.ar    1  UNL1        0.1496
      3 O         140.9235  134.5517  154.0512 O.2     1  UNL1       -0.4533
      4 C         141.1691  135.7241  154.9541 C.ar    1  UNL1        0.1467
      5 C         140.7054  137.1494  154.8969 C.ar    1  UNL1        0.0536
      6 C         141.1214  138.1169  155.9651 C.ar    1  UNL1        0.0730
      7 C         142.0012  137.6590  157.0904 C.ar    1  UNL1        0.0327
      8 C         142.4650  136.2337  157.1475 C.ar    1  UNL1        0.0061
      9 C         142.0490  135.2662  156.0794 C.ar    1  UNL1        0.0420
     10 C         142.4173  138.6265  158.1585 C.ar    1  UNL1        0.0827
     11 C         143.4716  139.6539  157.8706 C.ar    1  UNL1        0.0207
     12 C         143.8877  140.6213  158.9387 C.ar    1  UNL1        0.0223
     13 C         143.2494  140.5614  160.2947 C.ar    1  UNL1        0.1021
     14 N         143.6655  141.5289  161.3629 N.ar    1  UNL1       -0.2235
     15 C         143.0273  141.4690  162.7190 C.ar    1  UNL1        0.1828
     16 N         141.9729  140.4416  163.0070 N.ar    1  UNL1       -0.2877
     17 C         141.1721  140.1435  164.2398 C.ar    1  UNL1        0.0676
     18 C         141.1548  140.7720  165.6017 C.ar    1  UNL1        0.0177
     19 C         140.2265  140.2489  166.6574 C.ar    1  UNL1        0.0038
     20 C         139.3155  139.0972  166.3512 C.ar    1  UNL1        0.0297
     21 C         139.3328  138.4687  164.9893 C.ar    1  UNL1        0.1415
     22 F         138.4218  137.3170  164.6831 F       1  UNL1       -0.2041
     23 C         140.2612  138.9919  163.9336 C.ar    1  UNL1        0.0451
     24 C         140.4989  138.5782  162.5115 C.ar    1  UNL1        0.0228
     25 C         141.5569  139.4741  161.9389 C.ar    1  UNL1        0.0846
     26 C         142.1951  139.5340  160.5827 C.ar    1  UNL1        0.1149
     27 N         141.7790  138.5666  159.5146 N.ar    1  UNL1       -0.2423
     28 C         141.6790  131.9877  154.0348 C.ar    1  UNL1        0.0349
     29 C         140.5436  131.0419  154.2923 C.ar    1  UNL1        0.0053
     30 C         140.5711  129.6604  153.7087 C.ar    1  UNL1        0.0297
     31 C         141.7341  129.2247  152.8675 C.ar    1  UNL1        0.1401
     32 F         141.7617  127.8432  152.2838 F       1  UNL1       -0.2042
     33 C         142.8695  130.1705  152.6100 C.ar    1  UNL1        0.0297
     34 C         142.8420  131.5520  153.1937 C.ar    1  UNL1        0.0053
     35 C         145.4175  132.5309  158.0361 C.3     1  UNL1        0.1109
     36 N         144.5723  133.3932  157.1463 N.am    1  UNL1       -0.2991
     37 C         143.1923  132.9485  156.7618 C.2     1  UNL1        0.2490
     38 O         142.6577  131.6413  157.2672 O.2     1  UNL1       -0.2700
     39 H         144.9232  134.2512  156.8146 H       1  UNL1        0.1498
     40 N         140.6576  139.5423  155.9080 N.pl3   1  UNL1       -0.1924
     41 C         141.2711  140.4916  154.9219 C.3     1  UNL1        0.1388
     42 S         139.5804  140.0183  156.8370 S.O2    1  UNL1        0.0588
     43 C         138.5031  140.4942  157.7659 C.3     1  UNL1        0.1999
     44 O         140.4032  141.2269  157.1719 O.2     1  UNL1       -0.1542
     45 O         138.7576  138.8097  156.5020 O.2     1  UNL1       -0.1542
@<TRIPOS>BOND
     1    35    36    1
     2    36    37   am
     3    37    38    2
     4    37     1    1
     5     1     2   ar
     6     2    28    1
     7    28    29   ar
     8    29    30   ar
     9    30    31   ar
    10    31    32    1
    11    31    33   ar
    12    33    34   ar
    13     2     3   ar
    14     3     4   ar
    15     4     5   ar
    16     5     6   ar
    17     6    40    1
    18    40    41    1
    19    40    42    1
    20    42    43    1
    21    42    44    2
    22    42    45    2
    23     6     7   ar
    24     7    10    1
    25    10    11   ar
    26    11    12   ar
    27    12    13   ar
    28    13    14   ar
    29    14    15   ar
    30    15    16   ar
    31    16    17   ar
    32    17    18   ar
    33    18    19   ar
    34    19    20   ar
    35    20    21   ar
    36    21    22    1
    37    21    23   ar
    38    23    24   ar
    39    24    25   ar
    40    25    26   ar
    41    26    27   ar
    42     7     8   ar
    43     8     9   ar
    44     9     1   ar
    45    34    28   ar
    46     9     4   ar
    47    27    10   ar
    48    26    13   ar
    49    25    16   ar
    50    23    17   ar
    51    36    39    1
@<TRIPOS>MOLECULE
*****
 45 51 0 0 0
SMALL
GASTEIGER

@<TRIPOS>ATOM
      1 C         142.5314  134.8645  156.3164 C.ar    1  UNL1        0.0907
      2 C         141.7807  134.2400  155.1778 C.ar    1  UNL1        0.1496
      3 O         140.9490  135.3071  154.5302 O.2     1  UNL1       -0.4533
      4 C         141.1856  136.5912  155.2686 C.ar    1  UNL1        0.1467
      5 C         140.6369  137.9742  155.0783 C.ar    1  UNL1        0.0536
      6 C         141.0662  139.0837  155.9921 C.ar    1  UNL1        0.0730
      7 C         142.0442  138.8101  157.0960 C.ar    1  UNL1        0.0327
      8 C         142.5929  137.4271  157.2862 C.ar    1  UNL1        0.0061
      9 C         142.1636  136.3176  156.3726 C.ar    1  UNL1        0.0420
     10 C         142.4735  139.9196  158.0097 C.ar    1  UNL1        0.0827
     11 C         143.8353  140.5302  157.8597 C.ar    1  UNL1        0.0207
     12 C         144.2647  141.6396  158.7734 C.ar    1  UNL1        0.0223
     13 C         143.3321  142.1384  159.8371 C.ar    1  UNL1        0.1021
     14 N         143.7615  143.2478  160.7508 N.ar    1  UNL1       -0.2235
     15 C         142.8289  143.7466  161.8146 C.ar    1  UNL1        0.1828
     16 N         141.4671  143.1360  161.9646 N.ar    1  UNL1       -0.2877
     17 C         140.3399  143.4175  162.9134 C.ar    1  UNL1        0.0676
     18 C         140.1934  144.4047  164.0332 C.ar    1  UNL1        0.0177
     19 C         138.9209  144.4565  164.8257 C.ar    1  UNL1        0.0038
     20 C         137.7949  143.5211  164.4984 C.ar    1  UNL1        0.0297
     21 C         137.9415  142.5338  163.3786 C.ar    1  UNL1        0.1415
     22 F         136.8155  141.5983  163.0514 F       1  UNL1       -0.2041
     23 C         139.2140  142.4820  162.5862 C.ar    1  UNL1        0.0451
     24 C         139.6453  141.6224  161.4350 C.ar    1  UNL1        0.0228
     25 C         141.0378  142.0266  161.0509 C.ar    1  UNL1        0.0846
     26 C         141.9703  141.5278  159.9871 C.ar    1  UNL1        0.1149
     27 N         141.5410  140.4184  159.0735 N.ar    1  UNL1       -0.2423
     28 C         141.8497  132.8009  154.7601 C.ar    1  UNL1        0.0349
     29 C         140.9256  131.7950  155.3800 C.ar    1  UNL1        0.0053
     30 C         140.9946  130.3560  154.9624 C.ar    1  UNL1        0.0297
     31 C         141.9875  129.9229  153.9249 C.ar    1  UNL1        0.1401
     32 F         142.0565  128.4838  153.5072 F       1  UNL1       -0.2042
     33 C         142.9115  130.9288  153.3050 C.ar    1  UNL1        0.0297
     34 C         142.8426  132.3679  153.7227 C.ar    1  UNL1        0.0053
     35 C         145.4036  132.4503  157.6094 C.3     1  UNL1        0.1109
     36 N         144.4522  133.1551  156.6885 N.am    1  UNL1       -0.2991
     37 C         143.4828  134.1597  157.2373 C.2     1  UNL1        0.2490
     38 O         143.4649  134.4594  158.7069 O.2     1  UNL1       -0.2700
     39 H         144.4639  132.9584  155.7240 H       1  UNL1        0.1498
     40 N         140.5175  140.4667  155.8018 N.pl3   1  UNL1       -0.1924
     41 C         141.4512  141.6215  155.5907 C.3     1  UNL1        0.1388
     42 S         139.0350  140.6949  155.8227 S.O2    1  UNL1        0.0588
     43 C         137.5527  140.9230  155.8437 C.3     1  UNL1        0.1999
     44 O         139.0902  141.1835  154.4057 O.2     1  UNL1       -0.1542
     45 O         138.9799  140.2062  157.2398 O.2     1  UNL1       -0.1542
@<TRIPOS>BOND
     1    35    36    1
     2    36    37   am
     3    37    38    2
     4    37     1    1
     5     1     2   ar
     6     2    28    1
     7    28    29   ar
     8    29    30   ar
     9    30    31   ar
    10    31    32    1
    11    31    33   ar
    12    33    34   ar
    13     2     3   ar
    14     3     4   ar
    15     4     5   ar
    16     5     6   ar
    17     6    40    1
    18    40    41    1
    19    40    42    1
    20    42    43    1
    21    42    44    2
    22    42    45    2
    23     6     7   ar
    24     7    10    1
    25    10    11   ar
    26    11    12   ar
    27    12    13   ar
    28    13    14   ar
    29    14    15   ar
    30    15    16   ar
    31    16    17   ar
    32    17    18   ar
    33    18    19   ar
    34    19    20   ar
    35    20    21   ar
    36    21    22    1
    37    21    23   ar
    38    23    24   ar
    39    24    25   ar
    40    25    26   ar
    41    26    27   ar
    42     7     8   ar
    43     8     9   ar
    44     9     1   ar
    45    34    28   ar
    46     9     4   ar
    47    27    10   ar
    48    26    13   ar
    49    25    16   ar
    50    23    17   ar
    51    36    39    1
@<TRIPOS>MOLECULE
*****
 45 51 0 0 0
SMALL
GASTEIGER

@<TRIPOS>ATOM
      1 C         142.1479  141.1913  162.0358 C.ar    1  UNL1        0.0907
      2 C         141.5689  140.0806  162.8612 C.ar    1  UNL1        0.1496
      3 O         140.5767  139.3416  162.0130 O.2     1  UNL1       -0.4533
      4 C         140.5425  139.9955  160.6635 C.ar    1  UNL1        0.1467
      5 C         139.7526  139.6977  159.4236 C.ar    1  UNL1        0.0536
      6 C         139.9338  140.5431  158.1978 C.ar    1  UNL1        0.0730
      7 C         140.9049  141.6863  158.2119 C.ar    1  UNL1        0.0327
      8 C         141.6948  141.9841  159.4518 C.ar    1  UNL1        0.0061
      9 C         141.5136  141.1387  160.6776 C.ar    1  UNL1        0.0420
     10 C         141.0861  142.5317  156.9861 C.ar    1  UNL1        0.0827
     11 C         141.8032  141.9764  155.7914 C.ar    1  UNL1        0.0207
     12 C         141.9844  142.8218  154.5657 C.ar    1  UNL1        0.0223
     13 C         141.4485  144.2224  154.5346 C.ar    1  UNL1        0.1021
     14 N         141.6297  145.0678  153.3088 N.ar    1  UNL1       -0.2235
     15 C         141.0937  146.4684  153.2778 C.ar    1  UNL1        0.1828
     16 N         140.3766  147.0237  154.4725 N.ar    1  UNL1       -0.2877
     17 C         139.7445  148.3589  154.7327 C.ar    1  UNL1        0.0676
     18 C         139.6158  149.5905  153.8862 C.ar    1  UNL1        0.0177
     19 C         138.9152  150.8019  154.4262 C.ar    1  UNL1        0.0038
     20 C         138.3434  150.7818  155.8128 C.ar    1  UNL1        0.0297
     21 C         138.4721  149.5502  156.6593 C.ar    1  UNL1        0.1415
     22 F         137.9002  149.5300  158.0460 F       1  UNL1       -0.2041
     23 C         139.1727  148.3387  156.1193 C.ar    1  UNL1        0.0451
     24 C         139.4513  146.9910  156.7161 C.ar    1  UNL1        0.0228
     25 C         140.1954  146.1783  155.6983 C.ar    1  UNL1        0.0846
     26 C         140.7313  144.7777  155.7294 C.ar    1  UNL1        0.1149
     27 N         140.5501  143.9323  156.9551 N.ar    1  UNL1       -0.2423
     28 C         141.9204  139.7644  164.2848 C.ar    1  UNL1        0.0349
     29 C         141.1374  140.3817  165.4054 C.ar    1  UNL1        0.0053
     30 C         141.4888  140.0657  166.8290 C.ar    1  UNL1        0.0297
     31 C         142.6233  139.1322  167.1319 C.ar    1  UNL1        0.1401
     32 F         142.9747  138.8161  168.5555 F       1  UNL1       -0.2042
     33 C         143.4062  138.5149  166.0112 C.ar    1  UNL1        0.0297
     34 C         143.0548  138.8310  164.5877 C.ar    1  UNL1        0.0053
     35 C         143.8616  144.6250  163.0472 C.3     1  UNL1        0.1109
     36 N         142.8295  143.6355  162.5938 N.am    1  UNL1       -0.2991
     37 C         143.1801  142.1808  162.4892 C.2     1  UNL1        0.2490
     38 O         144.5628  141.7157  162.8379 O.2     1  UNL1       -0.2700
     39 H         141.9219  143.9408  162.3650 H       1  UNL1        0.1498
     40 N         139.1439  140.2454  156.9579 N.pl3   1  UNL1       -0.1924
     41 C         139.6212  139.1957  155.9986 C.3     1  UNL1        0.1388
     42 S         137.8766  140.9973  156.6773 S.O2    1  UNL1        0.0588
     43 C         136.6094  141.7492  156.3967 C.3     1  UNL1        0.1999
     44 O         138.4761  141.5355  155.4120 O.2     1  UNL1       -0.1542
     45 O         137.2772  140.4591  157.9425 O.2     1  UNL1       -0.1542
@<TRIPOS>BOND
     1    35    36    1
     2    36    37   am
     3    37    38    2
     4    37     1    1
     5     1     2   ar
     6     2    28    1
     7    28    29   ar
     8    29    30   ar
     9    30    31   ar
    10    31    32    1
    11    31    33   ar
    12    33    34   ar
    13     2     3   ar
    14     3     4   ar
    15     4     5   ar
    16     5     6   ar
    17     6    40    1
    18    40    41    1
    19    40    42    1
    20    42    43    1
    21    42    44    2
    22    42    45    2
    23     6     7   ar
    24     7    10    1
    25    10    11   ar
    26    11    12   ar
    27    12    13   ar
    28    13    14   ar
    29    14    15   ar
    30    15    16   ar
    31    16    17   ar
    32    17    18   ar
    33    18    19   ar
    34    19    20   ar
    35    20    21   ar
    36    21    22    1
    37    21    23   ar
    38    23    24   ar
    39    24    25   ar
    40    25    26   ar
    41    26    27   ar
    42     7     8   ar
    43     8     9   ar
    44     9     1   ar
    45    34    28   ar
    46     9     4   ar
    47    27    10   ar
    48    26    13   ar
    49    25    16   ar
    50    23    17   ar
    51    36    39    1
@<TRIPOS>MOLECULE
*****
 45 51 0 0 0
SMALL
GASTEIGER

@<TRIPOS>ATOM
      1 C         141.7774  141.3436  163.2939 C.ar    1  UNL1        0.0907
      2 C         141.3926  140.1186  164.0694 C.ar    1  UNL1        0.1496
      3 O         141.1060  139.0203  163.0888 O.2     1  UNL1       -0.4533
      4 C         141.3137  139.5664  161.7073 C.ar    1  UNL1        0.1467
      5 C         141.1786  138.9418  160.3503 C.ar    1  UNL1        0.0536
      6 C         141.4585  139.7530  159.1199 C.ar    1  UNL1        0.0730
      7 C         141.8735  141.1889  159.2467 C.ar    1  UNL1        0.0327
      8 C         142.0086  141.8135  160.6037 C.ar    1  UNL1        0.0061
      9 C         141.7287  141.0024  161.8340 C.ar    1  UNL1        0.0420
     10 C         142.1534  142.0001  158.0164 C.ar    1  UNL1        0.0827
     11 C         141.0717  142.8474  157.4146 C.ar    1  UNL1        0.0207
     12 C         141.3515  143.6587  156.1844 C.ar    1  UNL1        0.0223
     13 C         142.7130  143.6226  155.5559 C.ar    1  UNL1        0.1021
     14 N         142.9929  144.4339  154.3256 N.ar    1  UNL1       -0.2235
     15 C         144.3544  144.3978  153.6971 C.ar    1  UNL1        0.1828
     16 N         145.4360  143.5505  154.2989 N.ar    1  UNL1       -0.2877
     17 C         146.8640  143.3162  153.9041 C.ar    1  UNL1        0.0676
     18 C         147.6934  143.8499  152.7739 C.ar    1  UNL1        0.0177
     19 C         149.1255  143.4275  152.6299 C.ar    1  UNL1        0.0038
     20 C         149.7282  142.4714  153.6161 C.ar    1  UNL1        0.0297
     21 C         148.8988  141.9378  154.7463 C.ar    1  UNL1        0.1415
     22 F         149.5016  140.9816  155.7326 F       1  UNL1       -0.2041
     23 C         147.4667  142.3601  154.8903 C.ar    1  UNL1        0.0451
     24 C         146.4112  142.0036  155.8947 C.ar    1  UNL1        0.0228
     25 C         145.1562  142.7393  155.5292 C.ar    1  UNL1        0.0846
     26 C         143.7947  142.7753  156.1577 C.ar    1  UNL1        0.1149
     27 N         143.5148  141.9641  157.3879 N.ar    1  UNL1       -0.2423
     28 C         141.3090  140.0110  165.5632 C.ar    1  UNL1        0.0349
     29 C         142.5345  139.6761  166.3607 C.ar    1  UNL1        0.0053
     30 C         142.4509  139.5684  167.8545 C.ar    1  UNL1        0.0297
     31 C         141.1419  139.7956  168.5507 C.ar    1  UNL1        0.1401
     32 F         141.0583  139.6879  170.0446 F       1  UNL1       -0.2042
     33 C         139.9164  140.1304  167.7532 C.ar    1  UNL1        0.0297
     34 C         140.0000  140.2381  166.2594 C.ar    1  UNL1        0.0053
     35 C         143.8666  144.5982  164.1840 C.3     1  UNL1        0.1109
     36 N         143.4978  143.2659  163.6019 N.am    1  UNL1       -0.2991
     37 C         142.1462  142.6759  163.8760 C.2     1  UNL1        0.2490
     38 O         141.1636  143.4183  164.7323 O.2     1  UNL1       -0.2700
     39 H         144.1428  142.7787  163.0399 H       1  UNL1        0.1498
     40 N         141.3234  139.1284  157.7629 N.pl3   1  UNL1       -0.1924
     41 C         140.3610  139.7020  156.7657 C.3     1  UNL1        0.1388
     42 S         142.1508  137.9300  157.4031 S.O2    1  UNL1        0.0588
     43 C         142.9782  136.7317  157.0434 C.3     1  UNL1        0.1999
     44 O         143.3947  138.6712  157.7947 O.2     1  UNL1       -0.1542
     45 O         140.9070  137.1888  157.0116 O.2     1  UNL1       -0.1542
@<TRIPOS>BOND
     1    35    36    1
     2    36    37   am
     3    37    38    2
     4    37     1    1
     5     1     2   ar
     6     2    28    1
     7    28    29   ar
     8    29    30   ar
     9    30    31   ar
    10    31    32    1
    11    31    33   ar
    12    33    34   ar
    13     2     3   ar
    14     3     4   ar
    15     4     5   ar
    16     5     6   ar
    17     6    40    1
    18    40    41    1
    19    40    42    1
    20    42    43    1
    21    42    44    2
    22    42    45    2
    23     6     7   ar
    24     7    10    1
    25    10    11   ar
    26    11    12   ar
    27    12    13   ar
    28    13    14   ar
    29    14    15   ar
    30    15    16   ar
    31    16    17   ar
    32    17    18   ar
    33    18    19   ar
    34    19    20   ar
    35    20    21   ar
    36    21    22    1
    37    21    23   ar
    38    23    24   ar
    39    24    25   ar
    40    25    26   ar
    41    26    27   ar
    42     7     8   ar
    43     8     9   ar
    44     9     1   ar
    45    34    28   ar
    46     9     4   ar
    47    27    10   ar
    48    26    13   ar
    49    25    16   ar
    50    23    17   ar
    51    36    39    1
@<TRIPOS>MOLECULE
*****
 45 51 0 0 0
SMALL
GASTEIGER

@<TRIPOS>ATOM
      1 C         141.0284  140.3343  164.9712 C.ar    1  UNL1        0.0907
      2 C         140.3936  141.2848  165.9426 C.ar    1  UNL1        0.1496
      3 O         139.6929  142.3524  165.1558 O.2     1  UNL1       -0.4533
      4 C         139.8947  142.0619  163.6981 C.ar    1  UNL1        0.1467
      5 C         139.4334  142.7719  162.4599 C.ar    1  UNL1        0.0536
      6 C         139.7976  142.2345  161.1076 C.ar    1  UNL1        0.0730
      7 C         140.6230  140.9873  160.9935 C.ar    1  UNL1        0.0327
      8 C         141.0842  140.2773  162.2317 C.ar    1  UNL1        0.0061
      9 C         140.7201  140.8145  163.5840 C.ar    1  UNL1        0.0420
     10 C         140.9871  140.4499  159.6412 C.ar    1  UNL1        0.0827
     11 C         140.0922  139.4549  158.9637 C.ar    1  UNL1        0.0207
     12 C         140.4564  138.9176  157.6114 C.ar    1  UNL1        0.0223
     13 C         141.7154  139.3753  156.9367 C.ar    1  UNL1        0.1021
     14 N         142.0795  138.8380  155.5843 N.ar    1  UNL1       -0.2235
     15 C         143.3385  139.2957  154.9096 C.ar    1  UNL1        0.1828
     16 N         144.2334  140.2908  155.5871 N.ar    1  UNL1       -0.2877
     17 C         145.5287  140.9224  155.1707 C.ar    1  UNL1        0.0676
     18 C         146.3671  140.7727  153.9360 C.ar    1  UNL1        0.0177
     19 C         147.6419  141.5507  153.7962 C.ar    1  UNL1        0.0038
     20 C         148.0783  142.4784  154.8911 C.ar    1  UNL1        0.0297
     21 C         147.2398  142.6281  156.1259 C.ar    1  UNL1        0.1415
     22 F         147.6762  143.5559  157.2208 F       1  UNL1       -0.2041
     23 C         145.9650  141.8501  156.2657 C.ar    1  UNL1        0.0451
     24 C         144.9395  141.7918  157.3588 C.ar    1  UNL1        0.0228
     25 C         143.8693  140.8281  156.9394 C.ar    1  UNL1        0.0846
     26 C         142.6103  140.3704  157.6142 C.ar    1  UNL1        0.1149
     27 N         142.2462  140.9077  158.9664 N.ar    1  UNL1       -0.2423
     28 C         140.4497  141.1850  167.4383 C.ar    1  UNL1        0.0349
     29 C         139.5709  140.2054  168.1581 C.ar    1  UNL1        0.0053
     30 C         139.6270  140.1056  169.6537 C.ar    1  UNL1        0.0297
     31 C         140.5618  140.9855  170.4295 C.ar    1  UNL1        0.1401
     32 F         140.6179  140.8857  171.9252 F       1  UNL1       -0.2042
     33 C         141.4406  141.9651  169.7097 C.ar    1  UNL1        0.0297
     34 C         141.3845  142.0649  168.2141 C.ar    1  UNL1        0.0053
     35 C         143.9005  138.0409  166.4682 C.3     1  UNL1        0.1109
     36 N         143.0982  139.2579  166.1146 N.am    1  UNL1       -0.2991
     37 C         141.8307  139.1172  165.3248 C.2     1  UNL1        0.2490
     38 O         141.3656  137.7595  164.8888 O.2     1  UNL1       -0.2700
     39 H         143.4036  140.1490  166.4008 H       1  UNL1        0.1498
     40 N         139.3364  142.9445  159.8694 N.pl3   1  UNL1       -0.1924
     41 C         138.1388  142.4421  159.1188 C.3     1  UNL1        0.1388
     42 S         140.0727  144.1570  159.3818 S.O2    1  UNL1        0.0588
     43 C         140.8091  145.3694  158.8941 C.3     1  UNL1        0.1999
     44 O         139.6425  144.9105  160.6053 O.2     1  UNL1       -0.1542
     45 O         140.5030  143.4036  158.1582 O.2     1  UNL1       -0.1542
@<TRIPOS>BOND
     1    35    36    1
     2    36    37   am
     3    37    38    2
     4    37     1    1
     5     1     2   ar
     6     2    28    1
     7    28    29   ar
     8    29    30   ar
     9    30    31   ar
    10    31    32    1
    11    31    33   ar
    12    33    34   ar
    13     2     3   ar
    14     3     4   ar
    15     4     5   ar
    16     5     6   ar
    17     6    40    1
    18    40    41    1
    19    40    42    1
    20    42    43    1
    21    42    44    2
    22    42    45    2
    23     6     7   ar
    24     7    10    1
    25    10    11   ar
    26    11    12   ar
    27    12    13   ar
    28    13    14   ar
    29    14    15   ar
    30    15    16   ar
    31    16    17   ar
    32    17    18   ar
    33    18    19   ar
    34    19    20   ar
    35    20    21   ar
    36    21    22    1
    37    21    23   ar
    38    23    24   ar
    39    24    25   ar
    40    25    26   ar
    41    26    27   ar
    42     7     8   ar
    43     8     9   ar
    44     9     1   ar
    45    34    28   ar
    46     9     4   ar
    47    27    10   ar
    48    26    13   ar
    49    25    16   ar
    50    23    17   ar
    51    36    39    1
@<TRIPOS>MOLECULE
*****
 45 51 0 0 0
SMALL
GASTEIGER

@<TRIPOS>ATOM
      1 C         141.1815  143.6464  158.2065 C.ar    1  UNL1        0.0907
      2 C         140.0185  144.2265  157.4576 C.ar    1  UNL1        0.1496
      3 O         138.7586  143.7643  158.1278 O.2     1  UNL1       -0.4533
      4 C         139.1430  142.8987  159.2909 C.ar    1  UNL1        0.1467
      5 C         138.3230  142.1673  160.3120 C.ar    1  UNL1        0.0536
      6 C         139.0004  141.3631  161.3818 C.ar    1  UNL1        0.0730
      7 C         140.4978  141.2902  161.4304 C.ar    1  UNL1        0.0327
      8 C         141.3178  142.0215  160.4093 C.ar    1  UNL1        0.0061
      9 C         140.6405  142.8257  159.3396 C.ar    1  UNL1        0.0420
     10 C         141.1752  140.4860  162.5002 C.ar    1  UNL1        0.0827
     11 C         141.9163  139.2325  162.1402 C.ar    1  UNL1        0.0207
     12 C         142.5937  138.4283  163.2099 C.ar    1  UNL1        0.0223
     13 C         142.5301  138.8775  164.6396 C.ar    1  UNL1        0.1021
     14 N         143.2075  138.0733  165.7094 N.ar    1  UNL1       -0.2235
     15 C         143.1439  138.5226  167.1391 C.ar    1  UNL1        0.1828
     16 N         142.4028  139.7761  167.4991 N.ar    1  UNL1       -0.2877
     17 C         142.1703  140.4625  168.8123 C.ar    1  UNL1        0.0676
     18 C         142.6002  140.1277  170.2099 C.ar    1  UNL1        0.0177
     19 C         142.2090  141.0213  171.3493 C.ar    1  UNL1        0.0038
     20 C         141.3879  142.2498  171.0913 C.ar    1  UNL1        0.0297
     21 C         140.9580  142.5846  169.6937 C.ar    1  UNL1        0.1415
     22 F         140.1369  143.8132  169.4357 F       1  UNL1       -0.2041
     23 C         141.3492  141.6910  168.5543 C.ar    1  UNL1        0.0451
     24 C         141.0743  141.7638  167.0815 C.ar    1  UNL1        0.0228
     25 C         141.7254  140.5803  166.4294 C.ar    1  UNL1        0.0846
     26 C         141.7890  140.1310  164.9996 C.ar    1  UNL1        0.1149
     27 N         141.1116  140.9353  163.9299 N.ar    1  UNL1       -0.2423
     28 C         140.1009  145.1130  156.2504 C.ar    1  UNL1        0.0349
     29 C         140.5567  144.5507  154.9366 C.ar    1  UNL1        0.0053
     30 C         140.6391  145.4372  153.7294 C.ar    1  UNL1        0.0297
     31 C         140.2657  146.8860  153.8361 C.ar    1  UNL1        0.1401
     32 F         140.3481  147.7726  152.6288 F       1  UNL1       -0.2042
     33 C         139.8099  147.4484  155.1498 C.ar    1  UNL1        0.0297
     34 C         139.7275  146.5619  156.3570 C.ar    1  UNL1        0.0053
     35 C         145.0138  142.8818  157.5144 C.3     1  UNL1        0.1109
     36 N         143.5642  142.6772  157.8411 N.am    1  UNL1       -0.2991
     37 C         142.6311  143.8510  157.8798 C.2     1  UNL1        0.2490
     38 O         143.1477  145.2294  157.5916 O.2     1  UNL1       -0.2700
     39 H         143.2252  141.7724  158.0302 H       1  UNL1        0.1498
     40 N         138.1803  140.6318  162.4029 N.pl3   1  UNL1       -0.1924
     41 C         137.3866  141.4001  163.4175 C.3     1  UNL1        0.1388
     42 S         138.1541  139.1319  162.4094 S.O2    1  UNL1        0.0588
     43 C         138.1279  137.6322  162.4159 C.3     1  UNL1        0.1999
     44 O         137.8963  139.1300  160.9318 O.2     1  UNL1       -0.1542
     45 O         138.4119  139.1339  163.8870 O.2     1  UNL1       -0.1542
@<TRIPOS>BOND
     1    35    36    1
     2    36    37   am
     3    37    38    2
     4    37     1    1
     5     1     2   ar
     6     2    28    1
     7    28    29   ar
     8    29    30   ar
     9    30    31   ar
    10    31    32    1
    11    31    33   ar
    12    33    34   ar
    13     2     3   ar
    14     3     4   ar
    15     4     5   ar
    16     5     6   ar
    17     6    40    1
    18    40    41    1
    19    40    42    1
    20    42    43    1
    21    42    44    2
    22    42    45    2
    23     6     7   ar
    24     7    10    1
    25    10    11   ar
    26    11    12   ar
    27    12    13   ar
    28    13    14   ar
    29    14    15   ar
    30    15    16   ar
    31    16    17   ar
    32    17    18   ar
    33    18    19   ar
    34    19    20   ar
    35    20    21   ar
    36    21    22    1
    37    21    23   ar
    38    23    24   ar
    39    24    25   ar
    40    25    26   ar
    41    26    27   ar
    42     7     8   ar
    43     8     9   ar
    44     9     1   ar
    45    34    28   ar
    46     9     4   ar
    47    27    10   ar
    48    26    13   ar
    49    25    16   ar
    50    23    17   ar
    51    36    39    1
@<TRIPOS>MOLECULE
*****
 45 51 0 0 0
SMALL
GASTEIGER

@<TRIPOS>ATOM
      1 C         142.1939  135.4447  156.1251 C.ar    1  UNL1        0.0907
      2 C         141.1068  134.9762  155.2038 C.ar    1  UNL1        0.1496
      3 O         140.0663  136.0541  155.1287 O.2     1  UNL1       -0.4533
      4 C         140.5104  137.1887  156.0036 C.ar    1  UNL1        0.1467
      5 C         139.8873  138.5162  156.3191 C.ar    1  UNL1        0.0536
      6 C         140.5792  139.4671  157.2504 C.ar    1  UNL1        0.0730
      7 C         141.8941  139.0904  157.8661 C.ar    1  UNL1        0.0327
      8 C         142.5171  137.7629  157.5506 C.ar    1  UNL1        0.0061
      9 C         141.8253  136.8121  156.6194 C.ar    1  UNL1        0.0420
     10 C         142.5859  140.0413  158.7974 C.ar    1  UNL1        0.0827
     11 C         143.5651  141.0410  158.2572 C.ar    1  UNL1        0.0207
     12 C         144.2569  141.9919  159.1884 C.ar    1  UNL1        0.0223
     13 C         143.9697  141.9430  160.6598 C.ar    1  UNL1        0.1021
     14 N         144.6615  142.8939  161.5911 N.ar    1  UNL1       -0.2235
     15 C         144.3743  142.8450  163.0625 C.ar    1  UNL1        0.1828
     16 N         143.3951  141.8452  163.6027 N.ar    1  UNL1       -0.2877
     17 C         142.9136  141.5632  164.9950 C.ar    1  UNL1        0.0676
     18 C         143.2482  142.1856  166.3181 C.ar    1  UNL1        0.0177
     19 C         142.5934  141.6829  167.5705 C.ar    1  UNL1        0.0038
     20 C         141.6039  140.5578  167.4998 C.ar    1  UNL1        0.0297
     21 C         141.2693  139.9354  166.1767 C.ar    1  UNL1        0.1415
     22 F         140.2797  138.8103  166.1060 F       1  UNL1       -0.2041
     23 C         141.9241  140.4381  164.9243 C.ar    1  UNL1        0.0451
     24 C         141.7941  140.0247  163.4882 C.ar    1  UNL1        0.0228
     25 C         142.7033  140.8944  162.6715 C.ar    1  UNL1        0.0846
     26 C         142.9905  140.9432  161.2000 C.ar    1  UNL1        0.1149
     27 N         142.2987  139.9924  160.2688 N.ar    1  UNL1       -0.2423
     28 C         141.0671  133.6607  154.4840 C.ar    1  UNL1        0.0349
     29 C         140.9950  132.3812  155.2635 C.ar    1  UNL1        0.0053
     30 C         140.9553  131.0657  154.5438 C.ar    1  UNL1        0.0297
     31 C         140.9877  131.0299  153.0446 C.ar    1  UNL1        0.1401
     32 F         140.9481  129.7144  152.3248 F       1  UNL1       -0.2042
     33 C         141.0598  132.3094  152.2651 C.ar    1  UNL1        0.0297
     34 C         141.0995  133.6248  152.9848 C.ar    1  UNL1        0.0053
     35 C         144.7039  133.0945  158.1066 C.3     1  UNL1        0.1109
     36 N         143.4656  133.8591  157.7434 N.am    1  UNL1       -0.2991
     37 C         143.4321  134.6800  156.4883 C.2     1  UNL1        0.2490
     38 O         144.6369  134.7361  155.5966 O.2     1  UNL1       -0.2700
     39 H         142.6749  133.8223  158.3287 H       1  UNL1        0.1498
     40 N         139.9561  140.7946  157.5658 N.pl3   1  UNL1       -0.1924
     41 C         140.1378  141.9504  156.6272 C.3     1  UNL1        0.1388
     42 S         139.1514  140.9663  158.8200 S.O2    1  UNL1        0.0588
     43 C         138.3467  141.1380  160.0742 C.3     1  UNL1        0.1999
     44 O         138.3589  139.7391  158.4796 O.2     1  UNL1       -0.1542
     45 O         139.9438  142.1935  159.1605 O.2     1  UNL1       -0.1542
@<TRIPOS>BOND
     1    35    36    1
     2    36    37   am
     3    37    38    2
     4    37     1    1
     5     1     2   ar
     6     2    28    1
     7    28    29   ar
     8    29    30   ar
     9    30    31   ar
    10    31    32    1
    11    31    33   ar
    12    33    34   ar
    13     2     3   ar
    14     3     4   ar
    15     4     5   ar
    16     5     6   ar
    17     6    40    1
    18    40    41    1
    19    40    42    1
    20    42    43    1
    21    42    44    2
    22    42    45    2
    23     6     7   ar
    24     7    10    1
    25    10    11   ar
    26    11    12   ar
    27    12    13   ar
    28    13    14   ar
    29    14    15   ar
    30    15    16   ar
    31    16    17   ar
    32    17    18   ar
    33    18    19   ar
    34    19    20   ar
    35    20    21   ar
    36    21    22    1
    37    21    23   ar
    38    23    24   ar
    39    24    25   ar
    40    25    26   ar
    41    26    27   ar
    42     7     8   ar
    43     8     9   ar
    44     9     1   ar
    45    34    28   ar
    46     9     4   ar
    47    27    10   ar
    48    26    13   ar
    49    25    16   ar
    50    23    17   ar
    51    36    39    1
