@<TRIPOS>MOLECULE
*****
 42 47 0 0 0
SMALL
GASTEIGER

@<TRIPOS>ATOM
      1 C         140.6161  141.7878  160.4360 C.3     1  UNL1        0.1631
      2 N         140.8284  143.1585  159.8651 N.ar    1  UNL1       -0.3047
      3 C         141.6737  144.2425  160.4656 C.ar    1  UNL1        0.1441
      4 N         141.6004  145.4399  159.5651 N.ar    1  UNL1       -0.2267
      5 C         140.7098  145.0959  158.4081 C.ar    1  UNL1        0.1010
      6 C         140.2717  145.8845  157.2097 C.ar    1  UNL1        0.0526
      7 C         139.3565  145.2631  156.1967 C.ar    1  UNL1        0.1690
      8 F         138.9183  146.0517  154.9982 F       1  UNL1       -0.2017
      9 C         138.8793  143.8531  156.3820 C.ar    1  UNL1        0.1689
     10 F         137.9641  143.2317  155.3690 F       1  UNL1       -0.2017
     11 C         139.3174  143.0646  157.5805 C.ar    1  UNL1        0.0507
     12 C         140.2327  143.6860  158.5935 C.ar    1  UNL1        0.0816
     13 C         142.4550  144.1459  161.7423 C.ar    1  UNL1        0.0342
     14 C         143.7045  143.3178  161.7961 C.ar    1  UNL1        0.0039
     15 C         144.4859  143.2213  163.0729 C.ar    1  UNL1        0.0115
     16 C         144.0177  143.9528  164.2958 C.ar    1  UNL1        0.0577
     17 CL        144.7992  143.8563  165.5726 Cl      1  UNL1       -0.0822
     18 C         142.7682  144.7809  164.2420 C.ar    1  UNL1        0.0115
     19 C         141.9868  144.8775  162.9653 C.ar    1  UNL1        0.0039
     20 C         140.7618  140.5794  159.5595 C.3     1  UNL1        0.0297
     21 C         139.5847  139.6817  159.3177 C.3     1  UNL1        0.0024
     22 C         139.7305  138.4732  158.4412 C.3     1  UNL1        0.0001
     23 C         141.0535  138.1624  157.8063 C.3     1  UNL1        0.0000
     24 C         142.2307  139.0601  158.0480 C.3     1  UNL1        0.0001
     25 C         142.0849  140.2685  158.9245 C.3     1  UNL1        0.0024
     26 O         139.1366  142.4283  162.4734 O.2     1  UNL1       -0.2727
     27 C         140.2579  141.6254  161.8836 C.2     1  UNL1        0.2469
     28 N         141.0212  140.6602  162.7414 N.am    1  UNL1       -0.2806
     29 H         141.7572  140.1332  162.3543 H       1  UNL1        0.1550
     30 C         140.6631  140.4979  164.1889 C.ar    1  UNL1        0.0782
     31 C         141.4486  141.2223  165.2416 C.ar    1  UNL1        0.0171
     32 C         141.0905  141.0601  166.6892 C.ar    1  UNL1        0.0045
     33 C         139.9469  140.1734  167.0841 C.ar    1  UNL1        0.0394
     34 C         139.1614  139.4490  166.0313 C.ar    1  UNL1        0.0340
     35 C         139.5195  139.6112  164.5837 C.ar    1  UNL1        0.1536
     36 F         138.7339  138.8868  163.5311 F       1  UNL1       -0.2029
     37 C         139.5887  140.0112  168.5316 C.ar    1  UNL1        0.1806
     38 N         140.5155  140.2001  169.6957 N.ar    1  UNL1       -0.1083
     39 N         139.7404  139.9371  170.9527 N.ar    1  UNL1       -0.0229
     40 N         138.3345  139.5857  170.5655 N.ar    1  UNL1       -0.0464
     41 N         138.2407  139.6314  169.0691 N.ar    1  UNL1       -0.2388
     42 H         137.4358  139.4450  168.5337 H       1  UNL1        0.1923
@<TRIPOS>BOND
     1    26    27    2
     2    27    28   am
     3    28    30    1
     4    30    31   ar
     5    31    32   ar
     6    32    33   ar
     7    33    37    1
     8    37    38   ar
     9    38    39   ar
    10    39    40   ar
    11    40    41   ar
    12    33    34   ar
    13    34    35   ar
    14    35    36    1
    15    27     1    1
    16     1    20    1
    17    20    21    1
    18    21    22    1
    19    22    23    1
    20    23    24    1
    21    24    25    1
    22     1     2    1
    23     2     3   ar
    24     3    13    1
    25    13    14   ar
    26    14    15   ar
    27    15    16   ar
    28    16    17    1
    29    16    18   ar
    30    18    19   ar
    31     3     4   ar
    32     4     5   ar
    33     5     6   ar
    34     6     7   ar
    35     7     8    1
    36     7     9   ar
    37     9    10    1
    38     9    11   ar
    39    11    12   ar
    40    35    30   ar
    41    25    20    1
    42    12     2   ar
    43    41    37   ar
    44    19    13   ar
    45    12     5   ar
    46    28    29    1
    47    41    42    1
@<TRIPOS>MOLECULE
*****
 42 47 0 0 0
SMALL
GASTEIGER

@<TRIPOS>ATOM
      1 C         140.5984  140.4688  159.8683 C.3     1  UNL1        0.1631
      2 N         141.5205  139.4127  159.3351 N.ar    1  UNL1       -0.3047
      3 C         142.9144  139.1353  159.8148 C.ar    1  UNL1        0.1441
      4 N         143.4660  137.9997  159.0047 N.ar    1  UNL1       -0.2267
      5 C         142.4130  137.5753  158.0244 C.ar    1  UNL1        0.1010
      6 C         142.3937  136.5065  156.9722 C.ar    1  UNL1        0.0526
      7 C         141.1720  136.3109  156.1241 C.ar    1  UNL1        0.1690
      8 F         141.1527  135.2420  155.0718 F       1  UNL1       -0.2017
      9 C         139.9696  137.1842  156.3282 C.ar    1  UNL1        0.1689
     10 F         138.7479  136.9886  155.4801 F       1  UNL1       -0.2017
     11 C         139.9889  138.2530  157.3805 C.ar    1  UNL1        0.0507
     12 C         141.2106  138.4486  158.2285 C.ar    1  UNL1        0.0816
     13 C         143.6308  139.8653  160.9120 C.ar    1  UNL1        0.0342
     14 C         143.9179  139.1723  162.2109 C.ar    1  UNL1        0.0039
     15 C         144.6344  139.9023  163.3081 C.ar    1  UNL1        0.0115
     16 C         145.0637  141.3253  163.1063 C.ar    1  UNL1        0.0577
     17 CL        145.7802  142.0553  164.2035 Cl      1  UNL1       -0.0822
     18 C         144.7766  142.0183  161.8073 C.ar    1  UNL1        0.0115
     19 C         144.0602  141.2883  160.7102 C.ar    1  UNL1        0.0039
     20 C         139.8919  141.3945  158.9230 C.3     1  UNL1        0.0297
     21 C         140.6725  142.4145  158.1483 C.3     1  UNL1        0.0024
     22 C         139.9659  143.3403  157.2029 C.3     1  UNL1        0.0001
     23 C         138.4787  143.2461  157.0322 C.3     1  UNL1        0.0000
     24 C         137.6979  142.2261  157.8069 C.3     1  UNL1        0.0001
     25 C         138.4045  141.3003  158.7523 C.3     1  UNL1        0.0024
     26 O         140.3758  141.9556  161.9873 O.2     1  UNL1       -0.2727
     27 C         140.3827  140.5991  161.3471 C.2     1  UNL1        0.2469
     28 N         140.1740  139.3730  162.1856 N.am    1  UNL1       -0.2806
     29 H         140.1786  138.4827  161.7654 H       1  UNL1        0.1550
     30 C         139.9584  139.5034  163.6642 C.ar    1  UNL1        0.0782
     31 C         141.1126  139.3375  164.6079 C.ar    1  UNL1        0.0171
     32 C         140.8970  139.4679  166.0866 C.ar    1  UNL1        0.0045
     33 C         139.5274  139.7643  166.6217 C.ar    1  UNL1        0.0394
     34 C         138.3733  139.9302  165.6779 C.ar    1  UNL1        0.0340
     35 C         138.5888  139.7997  164.1992 C.ar    1  UNL1        0.1536
     36 F         137.4347  139.9657  163.2556 F       1  UNL1       -0.2029
     37 C         139.3118  139.8947  168.1003 C.ar    1  UNL1        0.1806
     38 N         138.1165  139.4062  168.8635 N.ar    1  UNL1       -0.1083
     39 N         138.3197  139.7462  170.3103 N.ar    1  UNL1       -0.0229
     40 N         139.6406  140.4448  170.4413 N.ar    1  UNL1       -0.0464
     41 N         140.2538  140.5366  169.0754 N.ar    1  UNL1       -0.2388
     42 H         141.1221  140.9461  168.8572 H       1  UNL1        0.1923
@<TRIPOS>BOND
     1    26    27    2
     2    27    28   am
     3    28    30    1
     4    30    31   ar
     5    31    32   ar
     6    32    33   ar
     7    33    37    1
     8    37    38   ar
     9    38    39   ar
    10    39    40   ar
    11    40    41   ar
    12    33    34   ar
    13    34    35   ar
    14    35    36    1
    15    27     1    1
    16     1    20    1
    17    20    21    1
    18    21    22    1
    19    22    23    1
    20    23    24    1
    21    24    25    1
    22     1     2    1
    23     2     3   ar
    24     3    13    1
    25    13    14   ar
    26    14    15   ar
    27    15    16   ar
    28    16    17    1
    29    16    18   ar
    30    18    19   ar
    31     3     4   ar
    32     4     5   ar
    33     5     6   ar
    34     6     7   ar
    35     7     8    1
    36     7     9   ar
    37     9    10    1
    38     9    11   ar
    39    11    12   ar
    40    35    30   ar
    41    25    20    1
    42    12     2   ar
    43    41    37   ar
    44    19    13   ar
    45    12     5   ar
    46    28    29    1
    47    41    42    1
@<TRIPOS>MOLECULE
*****
 42 47 0 0 0
SMALL
GASTEIGER

@<TRIPOS>ATOM
      1 C         140.1602  139.7797  159.2001 C.3     1  UNL1        0.1631
      2 N         141.0637  138.7603  158.5720 N.ar    1  UNL1       -0.3047
      3 C         142.4308  138.3766  159.0557 C.ar    1  UNL1        0.1441
      4 N         142.9707  137.3247  158.1326 N.ar    1  UNL1       -0.2267
      5 C         141.9373  137.0583  157.0786 C.ar    1  UNL1        0.1010
      6 C         141.9172  136.1224  155.9065 C.ar    1  UNL1        0.0526
      7 C         140.7185  136.0737  155.0061 C.ar    1  UNL1        0.1690
      8 F         140.6985  135.1378  153.8340 F       1  UNL1       -0.2017
      9 C         139.5399  136.9609  155.2776 C.ar    1  UNL1        0.1689
     10 F         138.3412  136.9122  154.3772 F       1  UNL1       -0.2017
     11 C         139.5600  137.8968  156.4497 C.ar    1  UNL1        0.0507
     12 C         140.7587  137.9455  157.3501 C.ar    1  UNL1        0.0816
     13 C         143.1344  138.9451  160.2522 C.ar    1  UNL1        0.0342
     14 C         143.6185  140.3647  160.2333 C.ar    1  UNL1        0.0039
     15 C         144.3221  140.9332  161.4298 C.ar    1  UNL1        0.0115
     16 C         144.5416  140.0821  162.6453 C.ar    1  UNL1        0.0577
     17 CL        145.2452  140.6506  163.8419 Cl      1  UNL1       -0.0822
     18 C         144.0575  138.6625  162.6642 C.ar    1  UNL1        0.0115
     19 C         143.3539  138.0940  161.4677 C.ar    1  UNL1        0.0039
     20 C         139.8664  141.0643  158.4837 C.3     1  UNL1        0.0297
     21 C         138.4611  141.3886  158.0713 C.3     1  UNL1        0.0024
     22 C         138.1673  142.6733  157.3548 C.3     1  UNL1        0.0001
     23 C         139.2787  143.6336  157.0507 C.3     1  UNL1        0.0000
     24 C         140.6840  143.3094  157.4631 C.3     1  UNL1        0.0001
     25 C         140.9778  142.0247  158.1796 C.3     1  UNL1        0.0024
     26 O         138.1601  138.9602  160.6417 O.2     1  UNL1       -0.2727
     27 C         139.5505  139.5145  160.5448 C.2     1  UNL1        0.2469
     28 N         140.3313  139.8036  161.7925 N.am    1  UNL1       -0.2806
     29 H         141.2439  140.1674  161.7289 H       1  UNL1        0.1550
     30 C         139.7216  139.5384  163.1371 C.ar    1  UNL1        0.0782
     31 C         139.0664  140.6537  163.8966 C.ar    1  UNL1        0.0171
     32 C         138.4567  140.3886  165.2412 C.ar    1  UNL1        0.0045
     33 C         138.5021  139.0082  165.8263 C.ar    1  UNL1        0.0394
     34 C         139.1574  137.8929  165.0667 C.ar    1  UNL1        0.0340
     35 C         139.7671  138.1580  163.7222 C.ar    1  UNL1        0.1536
     36 F         140.4223  137.0427  162.9627 F       1  UNL1       -0.2029
     37 C         137.8924  138.7429  167.1709 C.ar    1  UNL1        0.1806
     38 N         136.8299  137.7281  167.4725 N.ar    1  UNL1       -0.1083
     39 N         136.5190  137.8040  168.9379 N.ar    1  UNL1       -0.0229
     40 N         137.3895  138.8658  169.5421 N.ar    1  UNL1       -0.0464
     41 N         138.2383  139.4462  168.4500 N.ar    1  UNL1       -0.2388
     42 H         138.9053  140.1627  168.5543 H       1  UNL1        0.1923
@<TRIPOS>BOND
     1    26    27    2
     2    27    28   am
     3    28    30    1
     4    30    31   ar
     5    31    32   ar
     6    32    33   ar
     7    33    37    1
     8    37    38   ar
     9    38    39   ar
    10    39    40   ar
    11    40    41   ar
    12    33    34   ar
    13    34    35   ar
    14    35    36    1
    15    27     1    1
    16     1    20    1
    17    20    21    1
    18    21    22    1
    19    22    23    1
    20    23    24    1
    21    24    25    1
    22     1     2    1
    23     2     3   ar
    24     3    13    1
    25    13    14   ar
    26    14    15   ar
    27    15    16   ar
    28    16    17    1
    29    16    18   ar
    30    18    19   ar
    31     3     4   ar
    32     4     5   ar
    33     5     6   ar
    34     6     7   ar
    35     7     8    1
    36     7     9   ar
    37     9    10    1
    38     9    11   ar
    39    11    12   ar
    40    35    30   ar
    41    25    20    1
    42    12     2   ar
    43    41    37   ar
    44    19    13   ar
    45    12     5   ar
    46    28    29    1
    47    41    42    1
@<TRIPOS>MOLECULE
*****
 42 47 0 0 0
SMALL
GASTEIGER

@<TRIPOS>ATOM
      1 C         140.9195  141.7428  159.9314 C.3     1  UNL1        0.1631
      2 N         140.9759  143.1858  159.5259 N.ar    1  UNL1       -0.3047
      3 C         141.6747  144.2843  160.2709 C.ar    1  UNL1        0.1441
      4 N         141.4740  145.5611  159.5097 N.ar    1  UNL1       -0.2267
      5 C         140.6512  145.2517  158.2943 C.ar    1  UNL1        0.1010
      6 C         140.1425  146.1171  157.1797 C.ar    1  UNL1        0.0526
      7 C         139.3259  145.5145  156.0752 C.ar    1  UNL1        0.1690
      8 F         138.8171  146.3799  154.9605 F       1  UNL1       -0.2017
      9 C         139.0180  144.0464  156.0852 C.ar    1  UNL1        0.1689
     10 F         138.2014  143.4438  154.9806 F       1  UNL1       -0.2017
     11 C         139.5267  143.1811  157.1998 C.ar    1  UNL1        0.0507
     12 C         140.3433  143.7837  158.3043 C.ar    1  UNL1        0.0816
     13 C         142.4398  144.1326  161.5521 C.ar    1  UNL1        0.0342
     14 C         143.6444  143.2403  161.6051 C.ar    1  UNL1        0.0039
     15 C         144.4095  143.0885  162.8863 C.ar    1  UNL1        0.0115
     16 C         143.9702  143.8291  164.1144 C.ar    1  UNL1        0.0577
     17 CL        144.7354  143.6773  165.3957 Cl      1  UNL1       -0.0822
     18 C         142.7656  144.7214  164.0615 C.ar    1  UNL1        0.0115
     19 C         142.0005  144.8732  162.7803 C.ar    1  UNL1        0.0039
     20 C         141.5809  140.6986  159.0818 C.3     1  UNL1        0.0297
     21 C         140.8519  139.4309  158.7481 C.3     1  UNL1        0.0024
     22 C         141.5134  138.3866  157.8984 C.3     1  UNL1        0.0001
     23 C         142.9039  138.6100  157.3823 C.3     1  UNL1        0.0000
     24 C         143.6331  139.8777  157.7160 C.3     1  UNL1        0.0001
     25 C         142.9716  140.9220  158.5657 C.3     1  UNL1        0.0024
     26 O         138.8163  141.8539  161.4528 O.2     1  UNL1       -0.2727
     27 C         140.2017  141.3439  161.1868 C.2     1  UNL1        0.2469
     28 N         140.8692  140.4351  162.1760 N.am    1  UNL1       -0.2806
     29 H         141.7784  140.1004  162.0014 H       1  UNL1        0.1550
     30 C         140.1513  140.0364  163.4312 C.ar    1  UNL1        0.0782
     31 C         139.5272  138.6766  163.5384 C.ar    1  UNL1        0.0171
     32 C         138.8093  138.2777  164.7936 C.ar    1  UNL1        0.0045
     33 C         138.7155  139.2386  165.9416 C.ar    1  UNL1        0.0394
     34 C         139.3397  140.5984  165.8343 C.ar    1  UNL1        0.0340
     35 C         140.0576  140.9973  164.5791 C.ar    1  UNL1        0.1536
     36 F         140.6817  142.3570  164.4719 F       1  UNL1       -0.2029
     37 C         137.9976  138.8398  167.1968 C.ar    1  UNL1        0.1806
     38 N         136.9434  137.7789  167.3104 N.ar    1  UNL1       -0.1083
     39 N         136.5022  137.7154  168.7427 N.ar    1  UNL1       -0.0229
     40 N         137.2838  138.7371  169.5143 N.ar    1  UNL1       -0.0464
     41 N         138.2081  139.4320  168.5589 N.ar    1  UNL1       -0.2388
     42 H         138.8416  140.1506  168.7859 H       1  UNL1        0.1923
@<TRIPOS>BOND
     1    26    27    2
     2    27    28   am
     3    28    30    1
     4    30    31   ar
     5    31    32   ar
     6    32    33   ar
     7    33    37    1
     8    37    38   ar
     9    38    39   ar
    10    39    40   ar
    11    40    41   ar
    12    33    34   ar
    13    34    35   ar
    14    35    36    1
    15    27     1    1
    16     1    20    1
    17    20    21    1
    18    21    22    1
    19    22    23    1
    20    23    24    1
    21    24    25    1
    22     1     2    1
    23     2     3   ar
    24     3    13    1
    25    13    14   ar
    26    14    15   ar
    27    15    16   ar
    28    16    17    1
    29    16    18   ar
    30    18    19   ar
    31     3     4   ar
    32     4     5   ar
    33     5     6   ar
    34     6     7   ar
    35     7     8    1
    36     7     9   ar
    37     9    10    1
    38     9    11   ar
    39    11    12   ar
    40    35    30   ar
    41    25    20    1
    42    12     2   ar
    43    41    37   ar
    44    19    13   ar
    45    12     5   ar
    46    28    29    1
    47    41    42    1
@<TRIPOS>MOLECULE
*****
 42 47 0 0 0
SMALL
GASTEIGER

@<TRIPOS>ATOM
      1 C         141.6558  141.1154  162.3866 C.3     1  UNL1        0.1631
      2 N         140.7033  140.0318  162.7972 N.ar    1  UNL1       -0.3047
      3 C         140.2228  138.9054  161.9310 C.ar    1  UNL1        0.1441
      4 N         139.2867  138.0618  162.7446 N.ar    1  UNL1       -0.2267
      5 C         139.1887  138.6668  164.1137 C.ar    1  UNL1        0.1010
      6 C         138.4153  138.2663  165.3349 C.ar    1  UNL1        0.0526
      7 C         138.5175  139.0834  166.5887 C.ar    1  UNL1        0.1690
      8 F         137.7440  138.6829  167.8100 F       1  UNL1       -0.2017
      9 C         139.3930  140.3009  166.6213 C.ar    1  UNL1        0.1689
     10 F         139.4952  141.1180  167.8751 F       1  UNL1       -0.2017
     11 C         140.1664  140.7014  165.4000 C.ar    1  UNL1        0.0507
     12 C         140.0642  139.8843  164.1462 C.ar    1  UNL1        0.0816
     13 C         140.6104  138.6650  160.5020 C.ar    1  UNL1        0.0342
     14 C         139.5910  138.8188  159.4124 C.ar    1  UNL1        0.0039
     15 C         139.9786  138.5783  157.9835 C.ar    1  UNL1        0.0115
     16 C         141.3854  138.1840  157.6441 C.ar    1  UNL1        0.0577
     17 CL        141.7729  137.9435  156.2150 Cl      1  UNL1       -0.0822
     18 C         142.4047  138.0302  158.7337 C.ar    1  UNL1        0.0115
     19 C         142.0173  138.2706  160.1626 C.ar    1  UNL1        0.0039
     20 C         143.0541  141.1301  162.9290 C.3     1  UNL1        0.0297
     21 C         143.8217  142.4175  162.9894 C.3     1  UNL1        0.0024
     22 C         145.2201  142.4321  163.5319 C.3     1  UNL1        0.0001
     23 C         145.8510  141.1595  164.0138 C.3     1  UNL1        0.0000
     24 C         145.0835  139.8721  163.9534 C.3     1  UNL1        0.0001
     25 C         143.6851  139.8574  163.4110 C.3     1  UNL1        0.0024
     26 O         140.1582  143.1696  161.8500 O.2     1  UNL1       -0.2727
     27 C         141.2098  142.1844  161.4334 C.2     1  UNL1        0.2469
     28 N         141.8155  142.2682  160.0636 N.am    1  UNL1       -0.2806
     29 H         142.5057  141.6216  159.7902 H       1  UNL1        0.1550
     30 C         141.3695  143.3371  159.1106 C.ar    1  UNL1        0.0782
     31 C         142.2556  144.5164  158.8383 C.ar    1  UNL1        0.0171
     32 C         141.8096  145.5855  157.8852 C.ar    1  UNL1        0.0045
     33 C         140.4776  145.4752  157.2044 C.ar    1  UNL1        0.0394
     34 C         139.5915  144.2958  157.4767 C.ar    1  UNL1        0.0340
     35 C         140.0374  143.2268  158.4297 C.ar    1  UNL1        0.1536
     36 F         139.1513  142.0475  158.7020 F       1  UNL1       -0.2029
     37 C         140.0316  146.5441  156.2513 C.ar    1  UNL1        0.1806
     38 N         140.4125  146.6502  154.8043 N.ar    1  UNL1       -0.1083
     39 N         139.7426  147.8663  154.2367 N.ar    1  UNL1       -0.0229
     40 N         138.9477  148.5120  155.3328 N.ar    1  UNL1       -0.0464
     41 N         139.1263  147.6948  156.5779 N.ar    1  UNL1       -0.2388
     42 H         138.7207  147.8810  157.4554 H       1  UNL1        0.1923
@<TRIPOS>BOND
     1    26    27    2
     2    27    28   am
     3    28    30    1
     4    30    31   ar
     5    31    32   ar
     6    32    33   ar
     7    33    37    1
     8    37    38   ar
     9    38    39   ar
    10    39    40   ar
    11    40    41   ar
    12    33    34   ar
    13    34    35   ar
    14    35    36    1
    15    27     1    1
    16     1    20    1
    17    20    21    1
    18    21    22    1
    19    22    23    1
    20    23    24    1
    21    24    25    1
    22     1     2    1
    23     2     3   ar
    24     3    13    1
    25    13    14   ar
    26    14    15   ar
    27    15    16   ar
    28    16    17    1
    29    16    18   ar
    30    18    19   ar
    31     3     4   ar
    32     4     5   ar
    33     5     6   ar
    34     6     7   ar
    35     7     8    1
    36     7     9   ar
    37     9    10    1
    38     9    11   ar
    39    11    12   ar
    40    35    30   ar
    41    25    20    1
    42    12     2   ar
    43    41    37   ar
    44    19    13   ar
    45    12     5   ar
    46    28    29    1
    47    41    42    1
@<TRIPOS>MOLECULE
*****
 42 47 0 0 0
SMALL
GASTEIGER

@<TRIPOS>ATOM
      1 C         141.9655  141.2534  164.4853 C.3     1  UNL1        0.1631
      2 N         141.0906  140.8018  165.6169 N.ar    1  UNL1       -0.3047
      3 C         139.7057  140.2395  165.4905 C.ar    1  UNL1        0.1441
      4 N         139.2062  139.9234  166.8691 N.ar    1  UNL1       -0.2267
      5 C         140.2823  140.2903  167.8475 C.ar    1  UNL1        0.1010
      6 C         140.3522  140.2002  169.3431 C.ar    1  UNL1        0.0526
      7 C         141.5867  140.6529  170.0649 C.ar    1  UNL1        0.1690
      8 F         141.6566  140.5628  171.5606 F       1  UNL1       -0.2017
      9 C         142.7514  141.1958  169.2911 C.ar    1  UNL1        0.1689
     10 F         143.9859  141.6485  170.0128 F       1  UNL1       -0.2017
     11 C         142.6815  141.2859  167.7954 C.ar    1  UNL1        0.0507
     12 C         141.4470  140.8331  167.0736 C.ar    1  UNL1        0.0816
     13 C         138.9526  140.0302  164.2102 C.ar    1  UNL1        0.0342
     14 C         138.8536  138.6572  163.6143 C.ar    1  UNL1        0.0039
     15 C         138.1005  138.4479  162.3341 C.ar    1  UNL1        0.0115
     16 C         137.4466  139.6114  161.6498 C.ar    1  UNL1        0.0577
     17 CL        136.6935  139.4020  160.3695 Cl      1  UNL1       -0.0822
     18 C         137.5456  140.9844  162.2457 C.ar    1  UNL1        0.0115
     19 C         138.2986  141.1938  163.5259 C.ar    1  UNL1        0.0039
     20 C         142.6484  142.5872  164.5513 C.3     1  UNL1        0.0297
     21 C         144.0087  142.7035  165.1727 C.3     1  UNL1        0.0024
     22 C         144.6915  144.0375  165.2387 C.3     1  UNL1        0.0001
     23 C         144.0141  145.2551  164.6834 C.3     1  UNL1        0.0000
     24 C         142.6538  145.1389  164.0619 C.3     1  UNL1        0.0001
     25 C         141.9710  143.8049  163.9959 C.3     1  UNL1        0.0024
     26 O         142.8643  139.0556  163.4305 O.2     1  UNL1       -0.2727
     27 C         142.1576  140.3710  163.2875 C.2     1  UNL1        0.2469
     28 N         141.6429  140.8040  161.9467 N.am    1  UNL1       -0.2806
     29 H         141.1791  141.6673  161.8528 H       1  UNL1        0.1550
     30 C         141.8350  139.9216  160.7490 C.ar    1  UNL1        0.0782
     31 C         140.6579  139.2223  160.1363 C.ar    1  UNL1        0.0171
     32 C         140.8499  138.3398  158.9385 C.ar    1  UNL1        0.0045
     33 C         142.2190  138.1568  158.3536 C.ar    1  UNL1        0.0394
     34 C         143.3960  138.8562  158.9663 C.ar    1  UNL1        0.0340
     35 C         143.2040  139.7386  160.1640 C.ar    1  UNL1        0.1536
     36 F         144.3811  140.4380  160.7767 F       1  UNL1       -0.2029
     37 C         142.4111  137.2744  157.1559 C.ar    1  UNL1        0.1806
     38 N         143.6877  137.0941  156.3892 N.ar    1  UNL1       -0.1083
     39 N         143.4258  136.1257  155.2741 N.ar    1  UNL1       -0.0229
     40 N         141.9873  135.7074  155.3515 N.ar    1  UNL1       -0.0464
     41 N         141.3601  136.4174  156.5146 N.ar    1  UNL1       -0.2388
     42 H         140.4233  136.3353  156.8059 H       1  UNL1        0.1923
@<TRIPOS>BOND
     1    26    27    2
     2    27    28   am
     3    28    30    1
     4    30    31   ar
     5    31    32   ar
     6    32    33   ar
     7    33    37    1
     8    37    38   ar
     9    38    39   ar
    10    39    40   ar
    11    40    41   ar
    12    33    34   ar
    13    34    35   ar
    14    35    36    1
    15    27     1    1
    16     1    20    1
    17    20    21    1
    18    21    22    1
    19    22    23    1
    20    23    24    1
    21    24    25    1
    22     1     2    1
    23     2     3   ar
    24     3    13    1
    25    13    14   ar
    26    14    15   ar
    27    15    16   ar
    28    16    17    1
    29    16    18   ar
    30    18    19   ar
    31     3     4   ar
    32     4     5   ar
    33     5     6   ar
    34     6     7   ar
    35     7     8    1
    36     7     9   ar
    37     9    10    1
    38     9    11   ar
    39    11    12   ar
    40    35    30   ar
    41    25    20    1
    42    12     2   ar
    43    41    37   ar
    44    19    13   ar
    45    12     5   ar
    46    28    29    1
    47    41    42    1
@<TRIPOS>MOLECULE
*****
 42 47 0 0 0
SMALL
GASTEIGER

@<TRIPOS>ATOM
      1 C         141.4118  141.4129  161.0920 C.3     1  UNL1        0.1631
      2 N         141.7616  140.1847  160.3050 N.ar    1  UNL1       -0.3047
      3 C         141.4444  138.7703  160.6909 C.ar    1  UNL1        0.1441
      4 N         141.9767  137.8668  159.6184 N.ar    1  UNL1       -0.2267
      5 C         142.6229  138.7228  158.5697 C.ar    1  UNL1        0.1010
      6 C         143.3152  138.3828  157.2832 C.ar    1  UNL1        0.0526
      7 C         143.8745  139.4755  156.4210 C.ar    1  UNL1        0.1690
      8 F         144.5669  139.1354  155.1344 F       1  UNL1       -0.2017
      9 C         143.7416  140.9080  156.8453 C.ar    1  UNL1        0.1689
     10 F         144.3009  142.0006  155.9831 F       1  UNL1       -0.2017
     11 C         143.0493  141.2480  158.1318 C.ar    1  UNL1        0.0507
     12 C         142.4899  140.1554  158.9940 C.ar    1  UNL1        0.0816
     13 C         140.7218  138.3358  161.9315 C.ar    1  UNL1        0.0342
     14 C         141.4893  137.7549  163.0818 C.ar    1  UNL1        0.0039
     15 C         140.7667  137.3204  164.3224 C.ar    1  UNL1        0.0115
     16 C         139.2766  137.4668  164.4126 C.ar    1  UNL1        0.0577
     17 CL        138.5540  137.0323  165.6532 Cl      1  UNL1       -0.0822
     18 C         138.5091  138.0478  163.2622 C.ar    1  UNL1        0.0115
     19 C         139.2317  138.4823  162.0216 C.ar    1  UNL1        0.0039
     20 C         141.0134  142.6716  160.3801 C.3     1  UNL1        0.0297
     21 C         139.9334  142.6352  159.3398 C.3     1  UNL1        0.0024
     22 C         139.5350  143.8940  158.6280 C.3     1  UNL1        0.0001
     23 C         140.2165  145.1892  158.9564 C.3     1  UNL1        0.0000
     24 C         141.2966  145.2257  159.9967 C.3     1  UNL1        0.0001
     25 C         141.6950  143.9669  160.7085 C.3     1  UNL1        0.0024
     26 O         142.7316  141.0055  163.2925 O.2     1  UNL1       -0.2727
     27 C         141.4605  141.3823  162.5909 C.2     1  UNL1        0.2469
     28 N         140.2380  141.7285  163.3882 N.am    1  UNL1       -0.2806
     29 H         139.4037  141.9758  162.9278 H       1  UNL1        0.1550
     30 C         140.2867  141.6979  164.8871 C.ar    1  UNL1        0.0782
     31 C         139.6057  140.5918  165.6371 C.ar    1  UNL1        0.0171
     32 C         139.6544  140.5611  167.1361 C.ar    1  UNL1        0.0045
     33 C         140.3841  141.6366  167.8850 C.ar    1  UNL1        0.0394
     34 C         141.0652  142.7427  167.1348 C.ar    1  UNL1        0.0340
     35 C         141.0165  142.7734  165.6359 C.ar    1  UNL1        0.1536
     36 F         141.6976  143.8796  164.8859 F       1  UNL1       -0.2029
     37 C         140.4329  141.6060  169.3838 C.ar    1  UNL1        0.1806
     38 N         140.2620  142.7846  170.2958 N.ar    1  UNL1       -0.1083
     39 N         140.3846  142.2984  171.7095 N.ar    1  UNL1       -0.0229
     40 N         140.6312  140.8192  171.6713 N.ar    1  UNL1       -0.0464
     41 N         140.6611  140.3913  170.2339 N.ar    1  UNL1       -0.2388
     42 H         140.8051  139.4743  169.9060 H       1  UNL1        0.1923
@<TRIPOS>BOND
     1    26    27    2
     2    27    28   am
     3    28    30    1
     4    30    31   ar
     5    31    32   ar
     6    32    33   ar
     7    33    37    1
     8    37    38   ar
     9    38    39   ar
    10    39    40   ar
    11    40    41   ar
    12    33    34   ar
    13    34    35   ar
    14    35    36    1
    15    27     1    1
    16     1    20    1
    17    20    21    1
    18    21    22    1
    19    22    23    1
    20    23    24    1
    21    24    25    1
    22     1     2    1
    23     2     3   ar
    24     3    13    1
    25    13    14   ar
    26    14    15   ar
    27    15    16   ar
    28    16    17    1
    29    16    18   ar
    30    18    19   ar
    31     3     4   ar
    32     4     5   ar
    33     5     6   ar
    34     6     7   ar
    35     7     8    1
    36     7     9   ar
    37     9    10    1
    38     9    11   ar
    39    11    12   ar
    40    35    30   ar
    41    25    20    1
    42    12     2   ar
    43    41    37   ar
    44    19    13   ar
    45    12     5   ar
    46    28    29    1
    47    41    42    1
@<TRIPOS>MOLECULE
*****
 42 47 0 0 0
SMALL
GASTEIGER

@<TRIPOS>ATOM
      1 C         140.2202  142.0390  160.5460 C.3     1  UNL1        0.1631
      2 N         140.6228  143.3146  159.8671 N.ar    1  UNL1       -0.3047
      3 C         141.6221  144.3088  160.3799 C.ar    1  UNL1        0.1441
      4 N         141.7137  145.4285  159.3860 N.ar    1  UNL1       -0.2267
      5 C         140.7710  145.1263  158.2590 C.ar    1  UNL1        0.1010
      6 C         140.4394  145.8720  157.0005 C.ar    1  UNL1        0.0526
      7 C         139.4336  145.3112  156.0393 C.ar    1  UNL1        0.1690
      8 F         139.1020  146.0570  154.7807 F       1  UNL1       -0.2017
      9 C         138.7593  144.0047  156.3367 C.ar    1  UNL1        0.1689
     10 F         137.7535  143.4439  155.3755 F       1  UNL1       -0.2017
     11 C         139.0909  143.2590  157.5952 C.ar    1  UNL1        0.0507
     12 C         140.0967  143.8198  158.5564 C.ar    1  UNL1        0.0816
     13 C         142.3942  144.2020  161.6614 C.ar    1  UNL1        0.0342
     14 C         141.9280  144.9395  162.8815 C.ar    1  UNL1        0.0039
     15 C         142.7001  144.8327  164.1631 C.ar    1  UNL1        0.0115
     16 C         143.9384  143.9885  164.2245 C.ar    1  UNL1        0.0577
     17 CL        144.7105  143.8818  165.5062 Cl      1  UNL1       -0.0822
     18 C         144.4046  143.2510  163.0044 C.ar    1  UNL1        0.0115
     19 C         143.6325  143.3578  161.7229 C.ar    1  UNL1        0.0039
     20 C         139.5631  142.0817  161.8937 C.3     1  UNL1        0.0297
     21 C         138.1810  142.6468  162.0368 C.3     1  UNL1        0.0024
     22 C         137.5240  142.6894  163.3846 C.3     1  UNL1        0.0001
     23 C         138.2489  142.1669  164.5893 C.3     1  UNL1        0.0000
     24 C         139.6311  141.6017  164.4463 C.3     1  UNL1        0.0001
     25 C         140.2881  141.5591  163.0985 C.3     1  UNL1        0.0024
     26 O         139.5041  139.5906  160.0531 O.2     1  UNL1       -0.2727
     27 C         140.4747  140.7207  159.8771 C.2     1  UNL1        0.2469
     28 N         141.6997  140.5325  159.0323 N.am    1  UNL1       -0.2806
     29 H         142.3368  141.2741  158.9167 H       1  UNL1        0.1550
     30 C         141.9542  139.2142  158.3634 C.ar    1  UNL1        0.0782
     31 C         141.5071  138.9923  156.9489 C.ar    1  UNL1        0.0171
     32 C         141.7615  137.6739  156.2800 C.ar    1  UNL1        0.0045
     33 C         142.4630  136.5776  157.0256 C.ar    1  UNL1        0.0394
     34 C         142.9101  136.7996  158.4401 C.ar    1  UNL1        0.0340
     35 C         142.6557  138.1179  159.1090 C.ar    1  UNL1        0.1536
     36 F         143.1028  138.3398  160.5236 F       1  UNL1       -0.2029
     37 C         142.7174  135.2593  156.3568 C.ar    1  UNL1        0.1806
     38 N         141.7229  134.4687  155.5593 N.ar    1  UNL1       -0.1083
     39 N         142.4020  133.2210  155.0777 N.ar    1  UNL1       -0.0229
     40 N         143.8162  133.2404  155.5775 N.ar    1  UNL1       -0.0464
     41 N         144.0112  134.5002  156.3680 N.ar    1  UNL1       -0.2388
     42 H         144.8423  134.7797  156.8156 H       1  UNL1        0.1923
@<TRIPOS>BOND
     1    26    27    2
     2    27    28   am
     3    28    30    1
     4    30    31   ar
     5    31    32   ar
     6    32    33   ar
     7    33    37    1
     8    37    38   ar
     9    38    39   ar
    10    39    40   ar
    11    40    41   ar
    12    33    34   ar
    13    34    35   ar
    14    35    36    1
    15    27     1    1
    16     1    20    1
    17    20    21    1
    18    21    22    1
    19    22    23    1
    20    23    24    1
    21    24    25    1
    22     1     2    1
    23     2     3   ar
    24     3    13    1
    25    13    14   ar
    26    14    15   ar
    27    15    16   ar
    28    16    17    1
    29    16    18   ar
    30    18    19   ar
    31     3     4   ar
    32     4     5   ar
    33     5     6   ar
    34     6     7   ar
    35     7     8    1
    36     7     9   ar
    37     9    10    1
    38     9    11   ar
    39    11    12   ar
    40    35    30   ar
    41    25    20    1
    42    12     2   ar
    43    41    37   ar
    44    19    13   ar
    45    12     5   ar
    46    28    29    1
    47    41    42    1
@<TRIPOS>MOLECULE
*****
 42 47 0 0 0
SMALL
GASTEIGER

@<TRIPOS>ATOM
      1 C         140.0535  140.5540  164.7063 C.3     1  UNL1        0.1631
      2 N         141.3153  141.0389  165.3564 N.ar    1  UNL1       -0.3047
      3 C         142.6743  141.0795  164.7227 C.ar    1  UNL1        0.1441
      4 N         143.6386  141.6340  165.7290 N.ar    1  UNL1       -0.2267
      5 C         142.8756  141.9360  166.9846 C.ar    1  UNL1        0.1010
      6 C         143.3028  142.4985  168.3079 C.ar    1  UNL1        0.0526
      7 C         142.2941  142.6931  169.4010 C.ar    1  UNL1        0.1690
      8 F         142.7214  143.2555  170.7244 F       1  UNL1       -0.2017
      9 C         140.8583  142.3252  169.1708 C.ar    1  UNL1        0.1689
     10 F         139.8496  142.5198  170.2638 F       1  UNL1       -0.2017
     11 C         140.4311  141.7628  167.8475 C.ar    1  UNL1        0.0507
     12 C         141.4397  141.5682  166.7544 C.ar    1  UNL1        0.0816
     13 C         143.0100  140.6425  163.3276 C.ar    1  UNL1        0.0342
     14 C         143.2955  141.6663  162.2692 C.ar    1  UNL1        0.0039
     15 C         143.6312  141.2292  160.8741 C.ar    1  UNL1        0.0115
     16 C         143.6813  139.7684  160.5375 C.ar    1  UNL1        0.0577
     17 CL        144.0170  139.3314  159.1423 Cl      1  UNL1       -0.0822
     18 C         143.3957  138.7446  161.5958 C.ar    1  UNL1        0.0115
     19 C         143.0600  139.1816  162.9909 C.ar    1  UNL1        0.0039
     20 C         139.2785  139.4264  165.3209 C.3     1  UNL1        0.0297
     21 C         139.4514  138.0286  164.8050 C.3     1  UNL1        0.0024
     22 C         138.6764  136.9010  165.4197 C.3     1  UNL1        0.0001
     23 C         137.7284  137.1712  166.5504 C.3     1  UNL1        0.0000
     24 C         137.5555  138.5690  167.0664 C.3     1  UNL1        0.0001
     25 C         138.3306  139.6966  166.4517 C.3     1  UNL1        0.0024
     26 O         138.7073  142.4245  163.5066 O.2     1  UNL1       -0.2727
     27 C         139.5666  141.1967  163.4414 C.2     1  UNL1        0.2469
     28 N         139.9391  140.6117  162.1113 N.am    1  UNL1       -0.2806
     29 H         140.5031  139.8059  162.0685 H       1  UNL1        0.1550
     30 C         139.4522  141.2545  160.8465 C.ar    1  UNL1        0.0782
     31 C         138.5146  140.5123  159.9409 C.ar    1  UNL1        0.0171
     32 C         138.0276  141.1551  158.6760 C.ar    1  UNL1        0.0045
     33 C         138.4783  142.5399  158.3168 C.ar    1  UNL1        0.0394
     34 C         139.4159  143.2820  159.2225 C.ar    1  UNL1        0.0340
     35 C         139.9029  142.6393  160.4873 C.ar    1  UNL1        0.1536
     36 F         140.8405  143.3815  161.3929 F       1  UNL1       -0.2029
     37 C         137.9914  143.1827  157.0520 C.ar    1  UNL1        0.1806
     38 N         138.7727  144.1241  156.1840 N.ar    1  UNL1       -0.1083
     39 N         137.9018  144.5201  155.0287 N.ar    1  UNL1       -0.0229
     40 N         136.5823  143.8234  155.1826 N.ar    1  UNL1       -0.0464
     41 N         136.6377  142.9968  156.4331 N.ar    1  UNL1       -0.2388
     42 H         135.9128  142.4316  156.7858 H       1  UNL1        0.1923
@<TRIPOS>BOND
     1    26    27    2
     2    27    28   am
     3    28    30    1
     4    30    31   ar
     5    31    32   ar
     6    32    33   ar
     7    33    37    1
     8    37    38   ar
     9    38    39   ar
    10    39    40   ar
    11    40    41   ar
    12    33    34   ar
    13    34    35   ar
    14    35    36    1
    15    27     1    1
    16     1    20    1
    17    20    21    1
    18    21    22    1
    19    22    23    1
    20    23    24    1
    21    24    25    1
    22     1     2    1
    23     2     3   ar
    24     3    13    1
    25    13    14   ar
    26    14    15   ar
    27    15    16   ar
    28    16    17    1
    29    16    18   ar
    30    18    19   ar
    31     3     4   ar
    32     4     5   ar
    33     5     6   ar
    34     6     7   ar
    35     7     8    1
    36     7     9   ar
    37     9    10    1
    38     9    11   ar
    39    11    12   ar
    40    35    30   ar
    41    25    20    1
    42    12     2   ar
    43    41    37   ar
    44    19    13   ar
    45    12     5   ar
    46    28    29    1
    47    41    42    1
