@<TRIPOS>MOLECULE
*****
 28 31 0 0 0
SMALL
GASTEIGER

@<TRIPOS>ATOM
      1 C         140.3790  141.5613  169.6269 C.ar    1  UNL1        0.0702
      2 C         141.5054  141.7231  168.6497 C.ar    1  UNL1        0.0044
      3 C         141.4905  140.9648  167.3556 C.ar    1  UNL1        0.0103
      4 C         140.3490  140.0447  167.0386 C.ar    1  UNL1        0.0642
      5 C         140.3340  139.2864  165.7445 C.ar    1  UNL1        0.0174
      6 C         139.1925  138.3663  165.4276 C.ar    1  UNL1        0.0030
      7 C         138.0661  138.2045  166.4048 C.ar    1  UNL1        0.0191
      8 C         138.0810  138.9628  167.6989 C.ar    1  UNL1        0.0829
      9 N         139.2225  139.8829  168.0158 N.ar    1  UNL1       -0.2734
     10 C         139.2375  140.6413  169.3100 C.ar    1  UNL1        0.2658
     11 O         138.1110  140.4795  170.2871 O.2     1  UNL1       -0.2666
     12 O         141.5065  142.1042  171.9037 O.co2   1  UNL1       -0.5444
     13 C         140.3940  142.3197  170.9210 C.2     1  UNL1        0.0775
     14 O         139.2964  143.2936  171.2324 O.co2   1  UNL1       -0.5444
     15 C         142.6169  141.1266  166.3784 C.3     1  UNL1        0.1007
     16 N         142.3760  141.8026  165.0613 N.3     1  UNL1       -0.2659
     17 C         141.4841  143.0065  164.9881 C.3     1  UNL1        0.0941
     18 C         141.2432  143.6825  163.6710 C.3     1  UNL1        0.1081
     19 N         141.8939  143.1545  162.4269 N.pl3   1  UNL1       -0.3046
     20 C         142.7857  141.9507  162.4999 C.3     1  UNL1        0.1081
     21 C         143.0267  141.2746  163.8172 C.3     1  UNL1        0.0941
     22 C         141.6530  143.8305  161.1097 C.ar    1  UNL1        0.0480
     23 C         140.6052  144.8978  160.9950 C.ar    1  UNL1        0.0150
     24 C         140.3642  145.5738  159.6778 C.ar    1  UNL1        0.0080
     25 C         141.1709  145.1824  158.4753 C.ar    1  UNL1        0.0346
     26 BR        140.9300  145.8584  157.1582 Br      1  UNL1       -0.0490
     27 C         142.2187  144.1152  158.5900 C.ar    1  UNL1        0.0080
     28 C         142.4597  143.4392  159.9072 C.ar    1  UNL1        0.0150
@<TRIPOS>UNITY_ATOM_ATTR
12 1
charge -1
@<TRIPOS>BOND
     1    12    13   ar
     2    13    14   ar
     3    13     1    1
     4     1     2   ar
     5     2     3   ar
     6     3    15    1
     7    15    16    1
     8    16    17    1
     9    17    18    1
    10    18    19    1
    11    19    22    1
    12    22    23   ar
    13    23    24   ar
    14    24    25   ar
    15    25    26    1
    16    25    27   ar
    17    27    28   ar
    18    19    20    1
    19    20    21    1
    20     3     4   ar
    21     4     5   ar
    22     5     6   ar
    23     6     7   ar
    24     7     8   ar
    25     8     9   ar
    26     9    10   ar
    27    10    11    2
    28    10     1   ar
    29    21    16    1
    30     9     4   ar
    31    28    22   ar
@<TRIPOS>MOLECULE
*****
 28 31 0 0 0
SMALL
GASTEIGER

@<TRIPOS>ATOM
      1 C         139.6061  139.8939  167.0697 C.ar    1  UNL1        0.0702
      2 C         140.7445  140.2342  166.1541 C.ar    1  UNL1        0.0044
      3 C         141.9363  140.9758  166.6829 C.ar    1  UNL1        0.0103
      4 C         141.9897  141.3772  168.1272 C.ar    1  UNL1        0.0642
      5 C         143.1815  142.1188  168.6560 C.ar    1  UNL1        0.0174
      6 C         143.2348  142.5202  170.1003 C.ar    1  UNL1        0.0030
      7 C         142.0964  142.1799  171.0158 C.ar    1  UNL1        0.0191
      8 C         140.9046  141.4383  170.4871 C.ar    1  UNL1        0.0829
      9 N         140.8513  141.0369  169.0428 N.ar    1  UNL1       -0.2734
     10 C         139.6595  140.2953  168.5139 C.ar    1  UNL1        0.2658
     11 O         138.5210  139.9550  169.4295 O.2     1  UNL1       -0.2666
     12 O         137.9632  139.3686  165.1268 O.co2   1  UNL1       -0.5444
     13 C         138.4143  139.1522  166.5408 C.2     1  UNL1        0.0775
     14 O         137.6737  138.1943  167.4262 O.co2   1  UNL1       -0.5444
     15 C         143.0747  141.3160  165.7673 C.3     1  UNL1        0.1007
     16 N         142.8036  141.9654  164.4427 N.3     1  UNL1       -0.2659
     17 C         142.1514  143.3152  164.3885 C.3     1  UNL1        0.0941
     18 C         141.8802  143.9645  163.0639 C.3     1  UNL1        0.1081
     19 N         142.2612  143.2642  161.7933 N.pl3   1  UNL1       -0.3046
     20 C         142.9133  141.9145  161.8474 C.3     1  UNL1        0.1081
     21 C         143.1845  141.2650  163.1721 C.3     1  UNL1        0.0941
     22 C         141.9900  143.9135  160.4687 C.ar    1  UNL1        0.0480
     23 C         140.9136  144.9514  160.3485 C.ar    1  UNL1        0.0150
     24 C         140.6425  145.6007  159.0238 C.ar    1  UNL1        0.0080
     25 C         141.4476  145.2123  157.8193 C.ar    1  UNL1        0.0346
     26 BR        141.1764  145.8616  156.4946 Br      1  UNL1       -0.0490
     27 C         142.5238  144.1744  157.9394 C.ar    1  UNL1        0.0080
     28 C         142.7951  143.5250  159.2641 C.ar    1  UNL1        0.0150
@<TRIPOS>UNITY_ATOM_ATTR
12 1
charge -1
@<TRIPOS>BOND
     1    12    13   ar
     2    13    14   ar
     3    13     1    1
     4     1     2   ar
     5     2     3   ar
     6     3    15    1
     7    15    16    1
     8    16    17    1
     9    17    18    1
    10    18    19    1
    11    19    22    1
    12    22    23   ar
    13    23    24   ar
    14    24    25   ar
    15    25    26    1
    16    25    27   ar
    17    27    28   ar
    18    19    20    1
    19    20    21    1
    20     3     4   ar
    21     4     5   ar
    22     5     6   ar
    23     6     7   ar
    24     7     8   ar
    25     8     9   ar
    26     9    10   ar
    27    10    11    2
    28    10     1   ar
    29    21    16    1
    30     9     4   ar
    31    28    22   ar
@<TRIPOS>MOLECULE
*****
 28 31 0 0 0
SMALL
GASTEIGER

@<TRIPOS>ATOM
      1 C         139.7664  140.0402  168.5939 C.ar    1  UNL1        0.0702
      2 C         138.8149  139.6030  167.5199 C.ar    1  UNL1        0.0044
      3 C         139.3427  139.1169  166.2027 C.ar    1  UNL1        0.0103
      4 C         140.8221  139.0680  165.9594 C.ar    1  UNL1        0.0642
      5 C         141.3498  138.5819  164.6422 C.ar    1  UNL1        0.0174
      6 C         142.8292  138.5330  164.3990 C.ar    1  UNL1        0.0030
      7 C         143.7807  138.9702  165.4730 C.ar    1  UNL1        0.0191
      8 C         143.2529  139.4563  166.7902 C.ar    1  UNL1        0.0829
      9 N         141.7736  139.5052  167.0334 N.ar    1  UNL1       -0.2734
     10 C         141.2457  139.9913  168.3507 C.ar    1  UNL1        0.2658
     11 O         142.1972  140.4285  169.4247 O.2     1  UNL1       -0.2666
     12 O         139.3367  141.9799  170.2682 O.co2   1  UNL1       -0.5444
     13 C         139.2385  140.5263  169.9112 C.2     1  UNL1        0.0775
     14 O         138.6125  139.5588  170.8714 O.co2   1  UNL1       -0.5444
     15 C         138.3911  138.6798  165.1287 C.3     1  UNL1        0.1007
     16 N         138.4222  139.3430  163.7837 N.3     1  UNL1       -0.2659
     17 C         138.3692  140.8388  163.6836 C.3     1  UNL1        0.0941
     18 C         138.4003  141.5020  162.3386 C.3     1  UNL1        0.1081
     19 N         138.4844  140.6696  161.0936 N.pl3   1  UNL1       -0.3046
     20 C         138.5375  139.1739  161.1937 C.3     1  UNL1        0.1081
     21 C         138.5064  138.5106  162.5387 C.3     1  UNL1        0.0941
     22 C         138.5155  141.3328  159.7486 C.ar    1  UNL1        0.0480
     23 C         139.1784  142.6686  159.5862 C.ar    1  UNL1        0.0150
     24 C         139.2095  143.3319  158.2412 C.ar    1  UNL1        0.0080
     25 C         138.5777  142.6594  157.0586 C.ar    1  UNL1        0.0346
     26 BR        138.6088  143.3227  155.7136 Br      1  UNL1       -0.0490
     27 C         137.9149  141.3237  157.2209 C.ar    1  UNL1        0.0080
     28 C         137.8837  140.6604  158.5660 C.ar    1  UNL1        0.0150
@<TRIPOS>UNITY_ATOM_ATTR
12 1
charge -1
@<TRIPOS>BOND
     1    12    13   ar
     2    13    14   ar
     3    13     1    1
     4     1     2   ar
     5     2     3   ar
     6     3    15    1
     7    15    16    1
     8    16    17    1
     9    17    18    1
    10    18    19    1
    11    19    22    1
    12    22    23   ar
    13    23    24   ar
    14    24    25   ar
    15    25    26    1
    16    25    27   ar
    17    27    28   ar
    18    19    20    1
    19    20    21    1
    20     3     4   ar
    21     4     5   ar
    22     5     6   ar
    23     6     7   ar
    24     7     8   ar
    25     8     9   ar
    26     9    10   ar
    27    10    11    2
    28    10     1   ar
    29    21    16    1
    30     9     4   ar
    31    28    22   ar
@<TRIPOS>MOLECULE
*****
 28 31 0 0 0
SMALL
GASTEIGER

@<TRIPOS>ATOM
      1 C         142.2349  139.9521  166.3910 C.ar    1  UNL1        0.0702
      2 C         141.5214  141.0734  165.6955 C.ar    1  UNL1        0.0044
      3 C         140.8791  142.1658  166.4979 C.ar    1  UNL1        0.0103
      4 C         140.9501  142.1370  167.9960 C.ar    1  UNL1        0.0642
      5 C         140.3078  143.2294  168.7985 C.ar    1  UNL1        0.0174
      6 C         140.3789  143.2006  170.2965 C.ar    1  UNL1        0.0030
      7 C         141.0923  142.0793  170.9920 C.ar    1  UNL1        0.0191
      8 C         141.7347  140.9869  170.1896 C.ar    1  UNL1        0.0829
      9 N         141.6636  141.0157  168.6916 N.ar    1  UNL1       -0.2734
     10 C         142.3059  139.9233  167.8890 C.ar    1  UNL1        0.2658
     11 O         143.0194  138.8020  168.5846 O.2     1  UNL1       -0.2666
     12 O         144.3389  138.9311  165.2594 O.co2   1  UNL1       -0.5444
     13 C         142.8772  138.8597  165.5885 C.2     1  UNL1        0.0775
     14 O         142.0578  137.6958  165.1151 O.co2   1  UNL1       -0.5444
     15 C         140.1657  143.2871  165.8024 C.3     1  UNL1        0.1007
     16 N         140.4388  143.5658  164.3541 N.3     1  UNL1       -0.2659
     17 C         139.4590  143.1243  163.3075 C.3     1  UNL1        0.0941
     18 C         139.7322  143.4031  161.8592 C.3     1  UNL1        0.1081
     19 N         140.9852  144.1232  161.4573 N.pl3   1  UNL1       -0.3046
     20 C         141.9649  144.5647  162.5038 C.3     1  UNL1        0.1081
     21 C         141.6918  144.2859  163.9522 C.3     1  UNL1        0.0941
     22 C         141.2583  144.4019  160.0090 C.ar    1  UNL1        0.0480
     23 C         140.3861  145.3591  159.2519 C.ar    1  UNL1        0.0150
     24 C         140.6593  145.6378  157.8036 C.ar    1  UNL1        0.0080
     25 C         141.8047  144.9594  157.1123 C.ar    1  UNL1        0.0346
     26 BR        142.0779  145.2381  155.6640 Br      1  UNL1       -0.0490
     27 C         142.6769  144.0023  157.8694 C.ar    1  UNL1        0.0080
     28 C         142.4037  143.7235  159.3178 C.ar    1  UNL1        0.0150
@<TRIPOS>UNITY_ATOM_ATTR
12 1
charge -1
@<TRIPOS>BOND
     1    12    13   ar
     2    13    14   ar
     3    13     1    1
     4     1     2   ar
     5     2     3   ar
     6     3    15    1
     7    15    16    1
     8    16    17    1
     9    17    18    1
    10    18    19    1
    11    19    22    1
    12    22    23   ar
    13    23    24   ar
    14    24    25   ar
    15    25    26    1
    16    25    27   ar
    17    27    28   ar
    18    19    20    1
    19    20    21    1
    20     3     4   ar
    21     4     5   ar
    22     5     6   ar
    23     6     7   ar
    24     7     8   ar
    25     8     9   ar
    26     9    10   ar
    27    10    11    2
    28    10     1   ar
    29    21    16    1
    30     9     4   ar
    31    28    22   ar
@<TRIPOS>MOLECULE
*****
 28 31 0 0 0
SMALL
GASTEIGER

@<TRIPOS>ATOM
      1 C         141.0919  141.6128  169.1716 C.ar    1  UNL1        0.0702
      2 C         139.9852  141.7455  168.1678 C.ar    1  UNL1        0.0044
      3 C         140.0009  140.9136  166.9198 C.ar    1  UNL1        0.0103
      4 C         141.1234  139.9490  166.6755 C.ar    1  UNL1        0.0642
      5 C         141.1391  139.1171  165.4274 C.ar    1  UNL1        0.0174
      6 C         142.2615  138.1525  165.1832 C.ar    1  UNL1        0.0030
      7 C         143.3682  138.0198  166.1869 C.ar    1  UNL1        0.0191
      8 C         143.3525  138.8517  167.4350 C.ar    1  UNL1        0.0829
      9 N         142.2301  139.8163  167.6793 N.ar    1  UNL1       -0.2734
     10 C         142.2144  140.6482  168.9274 C.ar    1  UNL1        0.2658
     11 O         143.3211  140.5156  169.9311 O.2     1  UNL1       -0.2666
     12 O         141.4260  143.9019  170.3542 O.co2   1  UNL1       -0.5444
     13 C         141.0762  142.4448  170.4197 C.2     1  UNL1        0.0775
     14 O         140.7106  141.8195  171.7333 O.co2   1  UNL1       -0.5444
     15 C         138.8942  141.0463  165.9160 C.3     1  UNL1        0.1007
     16 N         139.1539  141.7112  164.5968 N.3     1  UNL1       -0.2659
     17 C         138.6284  141.0992  163.3321 C.3     1  UNL1        0.0941
     18 C         138.8881  141.7641  162.0129 C.3     1  UNL1        0.1081
     19 N         139.6734  143.0409  161.9582 N.pl3   1  UNL1       -0.3046
     20 C         140.1989  143.6529  163.2228 C.3     1  UNL1        0.1081
     21 C         139.9392  142.9880  164.5421 C.3     1  UNL1        0.0941
     22 C         139.9331  143.7058  160.6390 C.ar    1  UNL1        0.0480
     23 C         139.3786  143.1122  159.3779 C.ar    1  UNL1        0.0150
     24 C         139.6383  143.7771  158.0586 C.ar    1  UNL1        0.0080
     25 C         140.4525  145.0356  158.0004 C.ar    1  UNL1        0.0346
     26 BR        140.7123  145.7004  156.6812 Br      1  UNL1       -0.0490
     27 C         141.0070  145.6291  159.2614 C.ar    1  UNL1        0.0080
     28 C         140.7473  144.9642  160.5807 C.ar    1  UNL1        0.0150
@<TRIPOS>UNITY_ATOM_ATTR
12 1
charge -1
@<TRIPOS>BOND
     1    12    13   ar
     2    13    14   ar
     3    13     1    1
     4     1     2   ar
     5     2     3   ar
     6     3    15    1
     7    15    16    1
     8    16    17    1
     9    17    18    1
    10    18    19    1
    11    19    22    1
    12    22    23   ar
    13    23    24   ar
    14    24    25   ar
    15    25    26    1
    16    25    27   ar
    17    27    28   ar
    18    19    20    1
    19    20    21    1
    20     3     4   ar
    21     4     5   ar
    22     5     6   ar
    23     6     7   ar
    24     7     8   ar
    25     8     9   ar
    26     9    10   ar
    27    10    11    2
    28    10     1   ar
    29    21    16    1
    30     9     4   ar
    31    28    22   ar
@<TRIPOS>MOLECULE
*****
 28 31 0 0 0
SMALL
GASTEIGER

@<TRIPOS>ATOM
      1 C         139.6186  139.8631  167.0536 C.ar    1  UNL1        0.0702
      2 C         140.7598  140.2118  166.1446 C.ar    1  UNL1        0.0044
      3 C         141.9452  140.9579  166.6813 C.ar    1  UNL1        0.0103
      4 C         141.9895  141.3554  168.1271 C.ar    1  UNL1        0.0642
      5 C         143.1749  142.1015  168.6638 C.ar    1  UNL1        0.0174
      6 C         143.2191  142.4990  170.1094 C.ar    1  UNL1        0.0030
      7 C         142.0780  142.1504  171.0184 C.ar    1  UNL1        0.0191
      8 C         140.8926  141.4043  170.4817 C.ar    1  UNL1        0.0829
      9 N         140.8483  141.0068  169.0361 N.ar    1  UNL1       -0.2734
     10 C         139.6629  140.2606  168.4993 C.ar    1  UNL1        0.2658
     11 O         138.5217  139.9120  169.4083 O.2     1  UNL1       -0.2666
     12 O         137.7382  138.0987  167.3713 O.co2   1  UNL1       -0.5444
     13 C         138.4332  139.1170  166.5169 C.2     1  UNL1        0.0775
     14 O         137.9428  139.3891  165.1257 O.co2   1  UNL1       -0.5444
     15 C         143.0863  141.3066  165.7724 C.3     1  UNL1        0.1007
     16 N         143.0801  140.8384  164.3474 N.3     1  UNL1       -0.2659
     17 C         143.7100  139.5257  163.9864 C.3     1  UNL1        0.0941
     18 C         143.7038  139.0575  162.5614 C.3     1  UNL1        0.1081
     19 N         143.0678  139.9019  161.4973 N.pl3   1  UNL1       -0.3046
     20 C         142.4379  141.2145  161.8581 C.3     1  UNL1        0.1081
     21 C         142.4440  141.6828  163.2832 C.3     1  UNL1        0.0941
     22 C         143.0616  139.4337  160.0723 C.ar    1  UNL1        0.0480
     23 C         143.5016  140.3592  158.9768 C.ar    1  UNL1        0.0150
     24 C         143.4954  139.8910  157.5518 C.ar    1  UNL1        0.0080
     25 C         143.0492  138.4973  157.2221 C.ar    1  UNL1        0.0346
     26 BR        143.0430  138.0291  155.7971 Br      1  UNL1       -0.0490
     27 C         142.6092  137.5719  158.3175 C.ar    1  UNL1        0.0080
     28 C         142.6154  138.0400  159.7426 C.ar    1  UNL1        0.0150
@<TRIPOS>UNITY_ATOM_ATTR
12 1
charge -1
@<TRIPOS>BOND
     1    12    13   ar
     2    13    14   ar
     3    13     1    1
     4     1     2   ar
     5     2     3   ar
     6     3    15    1
     7    15    16    1
     8    16    17    1
     9    17    18    1
    10    18    19    1
    11    19    22    1
    12    22    23   ar
    13    23    24   ar
    14    24    25   ar
    15    25    26    1
    16    25    27   ar
    17    27    28   ar
    18    19    20    1
    19    20    21    1
    20     3     4   ar
    21     4     5   ar
    22     5     6   ar
    23     6     7   ar
    24     7     8   ar
    25     8     9   ar
    26     9    10   ar
    27    10    11    2
    28    10     1   ar
    29    21    16    1
    30     9     4   ar
    31    28    22   ar
@<TRIPOS>MOLECULE
*****
 28 31 0 0 0
SMALL
GASTEIGER

@<TRIPOS>ATOM
      1 C         141.1960  143.7628  161.0664 C.ar    1  UNL1        0.0702
      2 C         142.0411  143.1414  159.9942 C.ar    1  UNL1        0.0044
      3 C         143.3586  142.5165  160.3455 C.ar    1  UNL1        0.0103
      4 C         143.8311  142.5129  161.7692 C.ar    1  UNL1        0.0642
      5 C         145.1487  141.8879  162.1206 C.ar    1  UNL1        0.0174
      6 C         145.6211  141.8843  163.5442 C.ar    1  UNL1        0.0030
      7 C         144.7760  142.5057  164.6165 C.ar    1  UNL1        0.0191
      8 C         143.4585  143.1307  164.2651 C.ar    1  UNL1        0.0829
      9 N         142.9861  143.1342  162.8415 N.ar    1  UNL1       -0.2734
     10 C         141.6685  143.7592  162.4900 C.ar    1  UNL1        0.2658
     11 O         140.8234  144.3806  163.5623 O.2     1  UNL1       -0.2666
     12 O         138.7252  143.5232  160.3000 O.co2   1  UNL1       -0.5444
     13 C         139.8785  144.3878  160.7150 C.2     1  UNL1        0.0775
     14 O         139.7143  145.8774  160.7785 O.co2   1  UNL1       -0.5444
     15 C         144.2037  141.8951  159.2733 C.3     1  UNL1        0.1007
     16 N         143.7895  140.5945  158.6513 N.3     1  UNL1       -0.2659
     17 C         143.8780  140.4122  157.1650 C.3     1  UNL1        0.0941
     18 C         143.4637  139.1116  156.5430 C.3     1  UNL1        0.1081
     19 N         142.9609  137.9934  157.4072 N.pl3   1  UNL1       -0.3046
     20 C         142.8724  138.1758  158.8934 C.3     1  UNL1        0.1081
     21 C         143.2867  139.4763  159.5155 C.3     1  UNL1        0.0941
     22 C         142.5467  136.6929  156.7851 C.ar    1  UNL1        0.0480
     23 C         141.4190  136.6599  155.7965 C.ar    1  UNL1        0.0150
     24 C         141.0047  135.3594  155.1745 C.ar    1  UNL1        0.0080
     25 C         141.7181  134.0918  155.5410 C.ar    1  UNL1        0.0346
     26 BR        141.3038  132.7913  154.9190 Br      1  UNL1       -0.0490
     27 C         142.8457  134.1247  156.5296 C.ar    1  UNL1        0.0080
     28 C         143.2601  135.4253  157.1517 C.ar    1  UNL1        0.0150
@<TRIPOS>UNITY_ATOM_ATTR
12 1
charge -1
@<TRIPOS>BOND
     1    12    13   ar
     2    13    14   ar
     3    13     1    1
     4     1     2   ar
     5     2     3   ar
     6     3    15    1
     7    15    16    1
     8    16    17    1
     9    17    18    1
    10    18    19    1
    11    19    22    1
    12    22    23   ar
    13    23    24   ar
    14    24    25   ar
    15    25    26    1
    16    25    27   ar
    17    27    28   ar
    18    19    20    1
    19    20    21    1
    20     3     4   ar
    21     4     5   ar
    22     5     6   ar
    23     6     7   ar
    24     7     8   ar
    25     8     9   ar
    26     9    10   ar
    27    10    11    2
    28    10     1   ar
    29    21    16    1
    30     9     4   ar
    31    28    22   ar
@<TRIPOS>MOLECULE
*****
 28 31 0 0 0
SMALL
GASTEIGER

@<TRIPOS>ATOM
      1 C         142.9533  134.0158  155.9898 C.ar    1  UNL1        0.0702
      2 C         143.2047  135.2295  156.8347 C.ar    1  UNL1        0.0044
      3 C         142.6726  136.5649  156.4062 C.ar    1  UNL1        0.0103
      4 C         141.8891  136.6866  155.1328 C.ar    1  UNL1        0.0642
      5 C         141.3570  138.0220  154.7043 C.ar    1  UNL1        0.0174
      6 C         140.5736  138.1436  153.4310 C.ar    1  UNL1        0.0030
      7 C         140.3223  136.9299  152.5861 C.ar    1  UNL1        0.0191
      8 C         140.8543  135.5945  153.0146 C.ar    1  UNL1        0.0829
      9 N         141.6378  135.4729  154.2880 N.ar    1  UNL1       -0.2734
     10 C         142.1699  134.1375  154.7165 C.ar    1  UNL1        0.2658
     11 O         141.9186  132.9238  153.8717 O.2     1  UNL1       -0.2666
     12 O         144.9009  132.2997  156.0997 O.co2   1  UNL1       -0.5444
     13 C         143.4855  132.6804  156.4184 C.2     1  UNL1        0.0775
     14 O         142.6021  131.7258  157.1656 O.co2   1  UNL1       -0.5444
     15 C         142.9239  137.7786  157.2510 C.3     1  UNL1        0.1007
     16 N         142.2363  137.9257  158.5759 N.3     1  UNL1       -0.2659
     17 C         142.9743  137.6102  159.8431 C.3     1  UNL1        0.0941
     18 C         142.2867  137.7573  161.1680 C.3     1  UNL1        0.1081
     19 N         140.8609  138.2199  161.2258 N.pl3   1  UNL1       -0.3046
     20 C         140.1229  138.5354  159.9587 C.3     1  UNL1        0.1081
     21 C         140.8105  138.3883  158.6337 C.3     1  UNL1        0.0941
     22 C         140.1732  138.3670  162.5507 C.ar    1  UNL1        0.0480
     23 C         139.0961  139.3961  162.7265 C.ar    1  UNL1        0.0150
     24 C         138.4084  139.5432  164.0514 C.ar    1  UNL1        0.0080
     25 C         138.7978  138.6612  165.2006 C.ar    1  UNL1        0.0346
     26 BR        138.1102  138.8083  166.5255 Br      1  UNL1       -0.0490
     27 C         139.8749  137.6322  165.0248 C.ar    1  UNL1        0.0080
     28 C         140.5627  137.4851  163.6999 C.ar    1  UNL1        0.0150
@<TRIPOS>UNITY_ATOM_ATTR
12 1
charge -1
@<TRIPOS>BOND
     1    12    13   ar
     2    13    14   ar
     3    13     1    1
     4     1     2   ar
     5     2     3   ar
     6     3    15    1
     7    15    16    1
     8    16    17    1
     9    17    18    1
    10    18    19    1
    11    19    22    1
    12    22    23   ar
    13    23    24   ar
    14    24    25   ar
    15    25    26    1
    16    25    27   ar
    17    27    28   ar
    18    19    20    1
    19    20    21    1
    20     3     4   ar
    21     4     5   ar
    22     5     6   ar
    23     6     7   ar
    24     7     8   ar
    25     8     9   ar
    26     9    10   ar
    27    10    11    2
    28    10     1   ar
    29    21    16    1
    30     9     4   ar
    31    28    22   ar
@<TRIPOS>MOLECULE
*****
 28 31 0 0 0
SMALL
GASTEIGER

@<TRIPOS>ATOM
      1 C         139.3097  139.5792  164.2104 C.ar    1  UNL1        0.0702
      2 C         139.9897  140.8628  163.8360 C.ar    1  UNL1        0.0044
      3 C         140.4202  141.8230  164.9049 C.ar    1  UNL1        0.0103
      4 C         140.1707  141.4996  166.3483 C.ar    1  UNL1        0.0642
      5 C         140.6011  142.4599  167.4172 C.ar    1  UNL1        0.0174
      6 C         140.3516  142.1365  168.8605 C.ar    1  UNL1        0.0030
      7 C         139.6716  140.8530  169.2349 C.ar    1  UNL1        0.0191
      8 C         139.2411  139.8928  168.1660 C.ar    1  UNL1        0.0829
      9 N         139.4907  140.2161  166.7227 N.ar    1  UNL1       -0.2734
     10 C         139.0602  139.2559  165.6536 C.ar    1  UNL1        0.2658
     11 O         138.3802  137.9723  166.0280 O.2     1  UNL1       -0.2666
     12 O         137.7256  138.9614  162.2459 O.co2   1  UNL1       -0.5444
     13 C         138.8793  138.6190  163.1413 C.2     1  UNL1        0.0775
     14 O         139.6026  137.3164  162.9678 O.co2   1  UNL1       -0.5444
     15 C         141.1002  143.1065  164.5306 C.3     1  UNL1        0.1007
     16 N         141.1002  143.5666  163.1029 N.3     1  UNL1       -0.2659
     17 C         142.2337  143.1926  162.1944 C.3     1  UNL1        0.0941
     18 C         142.2338  143.6527  160.7667 C.3     1  UNL1        0.1081
     19 N         141.1003  144.4867  160.2475 N.pl3   1  UNL1       -0.3046
     20 C         139.9668  144.8607  161.1559 C.3     1  UNL1        0.1081
     21 C         139.9667  144.4006  162.5837 C.3     1  UNL1        0.0941
     22 C         141.1003  144.9468  158.8198 C.ar    1  UNL1        0.0480
     23 C         139.9851  145.8109  158.3102 C.ar    1  UNL1        0.0150
     24 C         139.9851  146.2710  156.8826 C.ar    1  UNL1        0.0080
     25 C         141.1003  145.8670  155.9644 C.ar    1  UNL1        0.0346
     26 BR        141.1003  146.3271  154.5367 Br      1  UNL1       -0.0490
     27 C         142.2155  145.0029  156.4739 C.ar    1  UNL1        0.0080
     28 C         142.2155  144.5428  157.9016 C.ar    1  UNL1        0.0150
@<TRIPOS>UNITY_ATOM_ATTR
12 1
charge -1
@<TRIPOS>BOND
     1    12    13   ar
     2    13    14   ar
     3    13     1    1
     4     1     2   ar
     5     2     3   ar
     6     3    15    1
     7    15    16    1
     8    16    17    1
     9    17    18    1
    10    18    19    1
    11    19    22    1
    12    22    23   ar
    13    23    24   ar
    14    24    25   ar
    15    25    26    1
    16    25    27   ar
    17    27    28   ar
    18    19    20    1
    19    20    21    1
    20     3     4   ar
    21     4     5   ar
    22     5     6   ar
    23     6     7   ar
    24     7     8   ar
    25     8     9   ar
    26     9    10   ar
    27    10    11    2
    28    10     1   ar
    29    21    16    1
    30     9     4   ar
    31    28    22   ar
