@<TRIPOS>MOLECULE
*****
 27 29 0 0 0
SMALL
GASTEIGER

@<TRIPOS>ATOM
      1 N         141.3980  139.3068  165.2271 N.3     1  UNL1       -0.2673
      2 C         142.6223  138.4413  165.1834 C.3     1  UNL1        0.0885
      3 C         143.2106  138.4002  166.5626 C.3     1  UNL1        0.0753
      4 N         144.4431  137.6506  166.9735 N.3     1  UNL1       -0.3207
      5 C         142.3498  139.2403  167.4588 C.3     1  UNL1        0.0891
      6 C         141.2296  139.8006  166.6335 C.3     1  UNL1        0.0811
      7 H         144.8305  137.1641  166.1650 H       1  UNL1        0.1189
      8 H         144.2032  136.9717  167.6960 H       1  UNL1        0.1189
      9 C         142.5704  139.4784  168.9233 C.2     1  UNL1        0.1535
     10 O         143.0159  138.3516  169.8075 O.2     1  UNL1       -0.2960
     11 C         142.3455  140.8432  169.5036 C.3     1  UNL1        0.0717
     12 C         143.3698  141.9333  169.6158 C.3     1  UNL1        0.0084
     13 C         142.7142  143.1213  170.2550 C.3     1  UNL1        0.0015
     14 C         141.2847  142.7655  170.5379 C.3     1  UNL1        0.0155
     15 C         141.0569  141.3576  170.0735 C.3     1  UNL1        0.0983
     16 C         139.7668  140.5974  170.1632 C.1     1  UNL1        0.0725
     17 N         138.4768  139.8373  170.2530 N.1     1  UNL1       -0.1959
     18 C         140.4998  139.6230  164.0681 C.3     1  UNL1        0.0992
     19 C         138.5830  144.4026  164.7615 C.3     1  UNL1        0.0317
     20 C         139.3876  143.4307  163.9503 C.ar    1  UNL1       -0.0125
     21 C         139.5414  142.0128  164.4148 C.ar    1  UNL1       -0.0065
     22 C         140.3460  141.0410  163.6035 C.ar    1  UNL1       -0.0064
     23 C         140.9966  141.4870  162.3277 C.ar    1  UNL1       -0.0022
     24 C         140.8427  142.9049  161.8632 C.ar    1  UNL1        0.0097
     25 C         140.0382  143.8767  162.6745 C.ar    1  UNL1        0.0645
     26 C         139.8843  145.2947  162.2099 C.1     1  UNL1        0.1001
     27 N         139.7304  146.7126  161.7453 N.1     1  UNL1       -0.1908
@<TRIPOS>BOND
     1    19    20    1
     2    20    21   ar
     3    21    22   ar
     4    22    18    1
     5    18     1    1
     6     1     2    1
     7     2     3    1
     8     3     4    1
     9     3     5    1
    10     5     9    1
    11     9    10    2
    12     9    11    1
    13    11    12    1
    14    12    13    1
    15    13    14    1
    16    14    15    1
    17    15    16    1
    18    16    17    3
    19     5     6    1
    20    22    23   ar
    21    23    24   ar
    22    24    25   ar
    23    25    26    1
    24    26    27    3
    25    25    20   ar
    26     6     1    1
    27    15    11    1
    28     4     7    1
    29     4     8    1
@<TRIPOS>MOLECULE
*****
 27 29 0 0 0
SMALL
GASTEIGER

@<TRIPOS>ATOM
      1 N         141.7892  141.2923  167.6216 N.3     1  UNL1       -0.2673
      2 C         141.1905  141.1552  168.9902 C.3     1  UNL1        0.0885
      3 C         139.9420  140.3327  168.8697 C.3     1  UNL1        0.0753
      4 N         139.0271  139.9488  169.9947 N.3     1  UNL1       -0.3207
      5 C         139.7690  139.9613  167.4268 C.3     1  UNL1        0.0891
      6 C         140.9106  140.5544  166.6554 C.3     1  UNL1        0.0811
      7 H         139.3830  140.3349  170.8692 H       1  UNL1        0.1189
      8 H         138.9826  138.9322  170.0651 H       1  UNL1        0.1189
      9 C         138.6507  139.1409  166.8554 C.2     1  UNL1        0.1535
     10 O         137.5503  138.6482  167.7478 O.2     1  UNL1       -0.2960
     11 C         138.6328  138.8133  165.3917 C.3     1  UNL1        0.0717
     12 C         138.9107  137.4698  164.7855 C.3     1  UNL1        0.0084
     13 C         138.7835  137.5978  163.2964 C.3     1  UNL1        0.0015
     14 C         138.4270  139.0206  162.9823 C.3     1  UNL1        0.0155
     15 C         138.3338  139.7718  164.2773 C.3     1  UNL1        0.0983
     16 C         138.0003  141.2262  164.4309 C.1     1  UNL1        0.0725
     17 N         137.6667  142.6805  164.5844 N.1     1  UNL1       -0.1959
     18 C         143.0458  142.0365  167.2794 C.3     1  UNL1        0.0992
     19 C         143.8220  144.9713  163.0623 C.3     1  UNL1        0.0317
     20 C         143.8626  143.6334  163.7393 C.ar    1  UNL1       -0.0125
     21 C         143.4339  143.5039  165.1708 C.ar    1  UNL1       -0.0065
     22 C         143.4745  142.1660  165.8478 C.ar    1  UNL1       -0.0064
     23 C         143.9438  140.9575  165.0932 C.ar    1  UNL1       -0.0022
     24 C         144.3725  141.0870  163.6617 C.ar    1  UNL1        0.0097
     25 C         144.3319  142.4250  162.9847 C.ar    1  UNL1        0.0645
     26 C         144.7607  142.5544  161.5531 C.1     1  UNL1        0.1001
     27 N         145.1893  142.6839  160.1215 N.1     1  UNL1       -0.1908
@<TRIPOS>BOND
     1    19    20    1
     2    20    21   ar
     3    21    22   ar
     4    22    18    1
     5    18     1    1
     6     1     2    1
     7     2     3    1
     8     3     4    1
     9     3     5    1
    10     5     9    1
    11     9    10    2
    12     9    11    1
    13    11    12    1
    14    12    13    1
    15    13    14    1
    16    14    15    1
    17    15    16    1
    18    16    17    3
    19     5     6    1
    20    22    23   ar
    21    23    24   ar
    22    24    25   ar
    23    25    26    1
    24    26    27    3
    25    25    20   ar
    26     6     1    1
    27    15    11    1
    28     4     7    1
    29     4     8    1
@<TRIPOS>MOLECULE
*****
 27 29 0 0 0
SMALL
GASTEIGER

@<TRIPOS>ATOM
      1 N         141.2468  138.9334  164.4337 N.3     1  UNL1       -0.2673
      2 C         140.5526  137.7457  163.8359 C.3     1  UNL1        0.0885
      3 C         139.3603  138.2414  163.0724 C.3     1  UNL1        0.0753
      4 N         138.3824  137.3921  162.3159 N.3     1  UNL1       -0.3207
      5 C         139.3178  139.7355  163.1983 C.3     1  UNL1        0.0891
      6 C         140.4837  140.1632  164.0396 C.3     1  UNL1        0.0811
      7 H         138.6500  136.4112  162.3971 H       1  UNL1        0.1189
      8 H         138.3844  137.6649  161.3331 H       1  UNL1        0.1189
      9 C         138.2898  140.6427  162.5898 C.2     1  UNL1        0.1535
     10 O         137.4044  140.1404  161.4880 O.2     1  UNL1       -0.2960
     11 C         138.1472  142.0521  163.0830 C.3     1  UNL1        0.0717
     12 C         137.7480  142.4652  164.4686 C.3     1  UNL1        0.0084
     13 C         137.7328  143.9642  164.5192 C.3     1  UNL1        0.0015
     14 C         138.1227  144.4776  163.1647 C.3     1  UNL1        0.0155
     15 C         138.3787  143.2959  162.2772 C.3     1  UNL1        0.0983
     16 C         138.7936  143.3487  160.8366 C.1     1  UNL1        0.0725
     17 N         139.2084  143.4015  159.3961 N.1     1  UNL1       -0.1959
     18 C         142.4866  138.8977  165.2773 C.3     1  UNL1        0.0992
     19 C         142.6571  139.8365  170.3851 C.3     1  UNL1        0.0317
     20 C         142.7317  140.3297  168.9705 C.ar    1  UNL1       -0.0125
     21 C         142.5718  139.3671  167.8313 C.ar    1  UNL1       -0.0065
     22 C         142.6465  139.8603  166.4166 C.ar    1  UNL1       -0.0064
     23 C         142.8811  141.3160  166.1412 C.ar    1  UNL1       -0.0022
     24 C         143.0410  142.2785  167.2804 C.ar    1  UNL1        0.0097
     25 C         142.9663  141.7854  168.6951 C.ar    1  UNL1        0.0645
     26 C         143.1262  142.7480  169.8344 C.1     1  UNL1        0.1001
     27 N         143.2862  143.7105  170.9736 N.1     1  UNL1       -0.1908
@<TRIPOS>BOND
     1    19    20    1
     2    20    21   ar
     3    21    22   ar
     4    22    18    1
     5    18     1    1
     6     1     2    1
     7     2     3    1
     8     3     4    1
     9     3     5    1
    10     5     9    1
    11     9    10    2
    12     9    11    1
    13    11    12    1
    14    12    13    1
    15    13    14    1
    16    14    15    1
    17    15    16    1
    18    16    17    3
    19     5     6    1
    20    22    23   ar
    21    23    24   ar
    22    24    25   ar
    23    25    26    1
    24    26    27    3
    25    25    20   ar
    26     6     1    1
    27    15    11    1
    28     4     7    1
    29     4     8    1
@<TRIPOS>MOLECULE
*****
 27 29 0 0 0
SMALL
GASTEIGER

@<TRIPOS>ATOM
      1 N         139.7234  139.3689  165.2448 N.3     1  UNL1       -0.2673
      2 C         138.4939  138.5763  165.5764 C.3     1  UNL1        0.0885
      3 C         138.1805  138.7921  167.0274 C.3     1  UNL1        0.0753
      4 N         137.0328  138.1879  167.7808 N.3     1  UNL1       -0.3207
      5 C         139.2164  139.7182  167.5925 C.3     1  UNL1        0.0891
      6 C         140.1699  140.0746  166.4908 C.3     1  UNL1        0.0811
      7 H         136.4864  137.5985  167.1528 H       1  UNL1        0.1189
      8 H         136.4403  138.9311  168.1511 H       1  UNL1        0.1189
      9 C         139.2864  140.2027  169.0104 C.2     1  UNL1        0.1535
     10 O         138.3161  139.6829  170.0293 O.2     1  UNL1       -0.2960
     11 C         140.3267  141.2070  169.4093 C.3     1  UNL1        0.0717
     12 C         140.1457  142.6955  169.4490 C.3     1  UNL1        0.0084
     13 C         141.4378  143.3076  169.9027 C.3     1  UNL1        0.0015
     14 C         142.4173  142.1974  170.1434 C.3     1  UNL1        0.0155
     15 C         141.7306  140.8992  169.8384 C.3     1  UNL1        0.0983
     16 C         142.3408  139.5329  169.9441 C.1     1  UNL1        0.0725
     17 N         142.9509  138.1667  170.0498 N.1     1  UNL1       -0.1959
     18 C         140.3895  139.4429  163.9029 C.3     1  UNL1        0.0992
     19 C         138.0182  143.9402  162.8297 C.3     1  UNL1        0.0317
     20 C         139.1039  142.9443  162.5474 C.ar    1  UNL1       -0.0125
     21 C         139.2039  141.6916  163.3662 C.ar    1  UNL1       -0.0065
     22 C         140.2895  140.6957  163.0839 C.ar    1  UNL1       -0.0064
     23 C         141.2751  140.9526  161.9828 C.ar    1  UNL1       -0.0022
     24 C         141.1751  142.2053  161.1640 C.ar    1  UNL1        0.0097
     25 C         140.0894  143.2012  161.4463 C.ar    1  UNL1        0.0645
     26 C         139.9895  144.4540  160.6274 C.1     1  UNL1        0.1001
     27 N         139.8894  145.7068  159.8085 N.1     1  UNL1       -0.1908
@<TRIPOS>BOND
     1    19    20    1
     2    20    21   ar
     3    21    22   ar
     4    22    18    1
     5    18     1    1
     6     1     2    1
     7     2     3    1
     8     3     4    1
     9     3     5    1
    10     5     9    1
    11     9    10    2
    12     9    11    1
    13    11    12    1
    14    12    13    1
    15    13    14    1
    16    14    15    1
    17    15    16    1
    18    16    17    3
    19     5     6    1
    20    22    23   ar
    21    23    24   ar
    22    24    25   ar
    23    25    26    1
    24    26    27    3
    25    25    20   ar
    26     6     1    1
    27    15    11    1
    28     4     7    1
    29     4     8    1
@<TRIPOS>MOLECULE
*****
 27 29 0 0 0
SMALL
GASTEIGER

@<TRIPOS>ATOM
      1 N         139.2997  139.5818  164.2846 N.3     1  UNL1       -0.2673
      2 C         138.3000  139.0591  163.2961 C.3     1  UNL1        0.0885
      3 C         137.9994  140.1551  162.3171 C.3     1  UNL1        0.0753
      4 N         137.0513  140.0664  161.1581 N.3     1  UNL1       -0.3207
      5 C         138.8133  141.3552  162.7006 C.3     1  UNL1        0.0891
      6 C         139.6169  141.0010  163.9166 C.3     1  UNL1        0.0811
      7 H         136.6330  139.1365  161.1314 H       1  UNL1        0.1189
      8 H         137.5590  140.2360  160.2898 H       1  UNL1        0.1189
      9 C         138.8220  142.6775  161.9925 C.2     1  UNL1        0.1535
     10 O         137.6678  143.0673  161.1174 O.2     1  UNL1       -0.2960
     11 C         139.9850  143.6101  162.1594 C.3     1  UNL1        0.0717
     12 C         141.1520  143.7400  161.2260 C.3     1  UNL1        0.0084
     13 C         142.0734  144.7866  161.7787 C.3     1  UNL1        0.0015
     14 C         141.4759  145.3035  163.0538 C.3     1  UNL1        0.0155
     15 C         140.1853  144.5764  163.2890 C.3     1  UNL1        0.0983
     16 C         139.2576  144.7799  164.4502 C.1     1  UNL1        0.0725
     17 N         138.3300  144.9834  165.6113 N.1     1  UNL1       -0.1959
     18 C         139.8803  138.8194  165.4386 C.3     1  UNL1        0.0992
     19 C         142.8548  141.4476  168.7919 C.3     1  UNL1        0.0317
     20 C         141.5446  140.8051  168.4448 C.ar    1  UNL1       -0.0125
     21 C         141.3675  140.1335  167.1153 C.ar    1  UNL1       -0.0065
     22 C         140.0573  139.4910  166.7682 C.ar    1  UNL1       -0.0064
     23 C         138.9242  139.5200  167.7505 C.ar    1  UNL1       -0.0022
     24 C         139.1012  140.1916  169.0800 C.ar    1  UNL1        0.0097
     25 C         140.4114  140.8341  169.4272 C.ar    1  UNL1        0.0645
     26 C         140.5885  141.5057  170.7567 C.1     1  UNL1        0.1001
     27 N         140.7655  142.1773  172.0862 N.1     1  UNL1       -0.1908
@<TRIPOS>BOND
     1    19    20    1
     2    20    21   ar
     3    21    22   ar
     4    22    18    1
     5    18     1    1
     6     1     2    1
     7     2     3    1
     8     3     4    1
     9     3     5    1
    10     5     9    1
    11     9    10    2
    12     9    11    1
    13    11    12    1
    14    12    13    1
    15    13    14    1
    16    14    15    1
    17    15    16    1
    18    16    17    3
    19     5     6    1
    20    22    23   ar
    21    23    24   ar
    22    24    25   ar
    23    25    26    1
    24    26    27    3
    25    25    20   ar
    26     6     1    1
    27    15    11    1
    28     4     7    1
    29     4     8    1
@<TRIPOS>MOLECULE
*****
 27 29 0 0 0
SMALL
GASTEIGER

@<TRIPOS>ATOM
      1 N         138.5590  139.1958  165.8365 N.3     1  UNL1       -0.2673
      2 C         138.8020  138.0379  164.9145 C.3     1  UNL1        0.0885
      3 C         138.6267  138.5223  163.5057 C.3     1  UNL1        0.0753
      4 N         138.7765  137.6946  162.2637 N.3     1  UNL1       -0.3207
      5 C         138.2755  139.9797  163.5570 C.3     1  UNL1        0.0891
      6 C         138.2336  140.3959  164.9975 C.3     1  UNL1        0.0811
      7 H         139.0190  136.7376  162.5201 H       1  UNL1        0.1189
      8 H         139.5148  138.0878  161.6801 H       1  UNL1        0.1189
      9 C         138.0123  140.8653  162.3754 C.2     1  UNL1        0.1535
     10 O         137.3478  140.3062  161.1523 O.2     1  UNL1       -0.2960
     11 C         138.4135  142.3101  162.4168 C.3     1  UNL1        0.0717
     12 C         137.6191  143.4287  163.0232 C.3     1  UNL1        0.0084
     13 C         138.3942  144.6998  162.8402 C.3     1  UNL1        0.0015
     14 C         139.6676  144.3668  162.1208 C.3     1  UNL1        0.0155
     15 C         139.6795  142.8899  161.8591 C.3     1  UNL1        0.0983
     16 C         140.7666  142.1267  161.1620 C.1     1  UNL1        0.0725
     17 N         141.8537  141.3637  160.4650 N.1     1  UNL1       -0.1959
     18 C         138.6292  139.1600  167.3344 C.3     1  UNL1        0.0992
     19 C         142.8965  142.1239  167.4054 C.3     1  UNL1        0.0317
     20 C         141.6876  141.5704  168.0998 C.ar    1  UNL1       -0.0125
     21 C         140.7629  140.6420  167.3700 C.ar    1  UNL1       -0.0065
     22 C         139.5540  140.0885  168.0644 C.ar    1  UNL1       -0.0064
     23 C         139.2698  140.4634  169.4887 C.ar    1  UNL1       -0.0022
     24 C         140.1946  141.3918  170.2185 C.ar    1  UNL1        0.0097
     25 C         141.4035  141.9453  169.5241 C.ar    1  UNL1        0.0645
     26 C         142.3283  142.8738  170.2541 C.1     1  UNL1        0.1001
     27 N         143.2530  143.8023  170.9840 N.1     1  UNL1       -0.1908
@<TRIPOS>BOND
     1    19    20    1
     2    20    21   ar
     3    21    22   ar
     4    22    18    1
     5    18     1    1
     6     1     2    1
     7     2     3    1
     8     3     4    1
     9     3     5    1
    10     5     9    1
    11     9    10    2
    12     9    11    1
    13    11    12    1
    14    12    13    1
    15    13    14    1
    16    14    15    1
    17    15    16    1
    18    16    17    3
    19     5     6    1
    20    22    23   ar
    21    23    24   ar
    22    24    25   ar
    23    25    26    1
    24    26    27    3
    25    25    20   ar
    26     6     1    1
    27    15    11    1
    28     4     7    1
    29     4     8    1
@<TRIPOS>MOLECULE
*****
 27 29 0 0 0
SMALL
GASTEIGER

@<TRIPOS>ATOM
      1 N         138.9553  140.8367  163.6496 N.3     1  UNL1       -0.2673
      2 C         137.9948  141.0542  162.5181 C.3     1  UNL1        0.0885
      3 C         138.3354  142.3611  161.8656 C.3     1  UNL1        0.0753
      4 N         137.6290  142.9708  160.6912 N.3     1  UNL1       -0.3207
      5 C         139.5065  142.9514  162.5937 C.3     1  UNL1        0.0891
      6 C         139.8895  142.0092  163.6963 C.3     1  UNL1        0.0811
      7 H         136.8699  142.3572  160.3950 H       1  UNL1        0.1189
      8 H         138.2886  143.0909  159.9225 H       1  UNL1        0.1189
      9 C         140.1767  144.2550  162.2753 C.2     1  UNL1        0.1535
     10 O         139.4210  145.3298  161.5518 O.2     1  UNL1       -0.2960
     11 C         141.6028  144.4837  162.6804 C.3     1  UNL1        0.0717
     12 C         142.0655  145.2534  163.8818 C.3     1  UNL1        0.0084
     13 C         143.5651  145.2283  163.8991 C.3     1  UNL1        0.0015
     14 C         144.0293  144.4431  162.7083 C.3     1  UNL1        0.0155
     15 C         142.8165  143.9829  161.9551 C.3     1  UNL1        0.0983
     16 C         142.8174  143.1654  160.6974 C.1     1  UNL1        0.0725
     17 N         142.8182  142.3479  159.4398 N.1     1  UNL1       -0.1959
     18 C         138.9776  139.6542  164.5722 C.3     1  UNL1        0.0992
     19 C         139.5432  140.4084  169.6822 C.3     1  UNL1        0.0317
     20 C         140.1302  140.0498  168.3492 C.ar    1  UNL1       -0.0125
     21 C         139.2605  140.0313  167.1272 C.ar    1  UNL1       -0.0065
     22 C         139.8474  139.6728  165.7942 C.ar    1  UNL1       -0.0064
     23 C         141.3041  139.3328  165.6831 C.ar    1  UNL1       -0.0022
     24 C         142.1739  139.3513  166.9051 C.ar    1  UNL1        0.0097
     25 C         141.5869  139.7098  168.2381 C.ar    1  UNL1        0.0645
     26 C         142.4567  139.7284  169.4601 C.1     1  UNL1        0.1001
     27 N         143.3265  139.7469  170.6819 N.1     1  UNL1       -0.1908
@<TRIPOS>BOND
     1    19    20    1
     2    20    21   ar
     3    21    22   ar
     4    22    18    1
     5    18     1    1
     6     1     2    1
     7     2     3    1
     8     3     4    1
     9     3     5    1
    10     5     9    1
    11     9    10    2
    12     9    11    1
    13    11    12    1
    14    12    13    1
    15    13    14    1
    16    14    15    1
    17    15    16    1
    18    16    17    3
    19     5     6    1
    20    22    23   ar
    21    23    24   ar
    22    24    25   ar
    23    25    26    1
    24    26    27    3
    25    25    20   ar
    26     6     1    1
    27    15    11    1
    28     4     7    1
    29     4     8    1
@<TRIPOS>MOLECULE
*****
 27 29 0 0 0
SMALL
GASTEIGER

@<TRIPOS>ATOM
      1 N         140.8949  142.0286  167.1983 N.3     1  UNL1       -0.2673
      2 C         141.4880  141.7047  168.5374 C.3     1  UNL1        0.0885
      3 C         142.2750  140.4350  168.4009 C.3     1  UNL1        0.0753
      4 N         143.0352  139.7469  169.4957 N.3     1  UNL1       -0.3207
      5 C         142.1681  139.9742  166.9775 C.3     1  UNL1        0.0891
      6 C         141.3152  140.9591  166.2342 C.3     1  UNL1        0.0811
      7 H         142.9381  140.2767  170.3619 H       1  UNL1        0.1189
      8 H         144.0212  139.6898  169.2409 H       1  UNL1        0.1189
      9 C         142.8028  138.7444  166.3989 C.2     1  UNL1        0.1535
     10 O         143.8337  137.9912  167.1862 O.2     1  UNL1       -0.2960
     11 C         142.4066  138.2678  165.0329 C.3     1  UNL1        0.0717
     12 C         141.3164  137.2850  164.7238 C.3     1  UNL1        0.0084
     13 C         141.2671  137.1002  163.2360 C.3     1  UNL1        0.0015
     14 C         142.3269  137.9687  162.6256 C.3     1  UNL1        0.0155
     15 C         143.0311  138.6902  163.7362 C.3     1  UNL1        0.0983
     16 C         144.1615  139.6635  163.5777 C.1     1  UNL1        0.0725
     17 N         145.2918  140.6368  163.4193 N.1     1  UNL1       -0.1959
     18 C         140.0327  143.2139  166.8792 C.3     1  UNL1        0.0992
     19 C         142.5138  144.5786  162.5224 C.3     1  UNL1        0.0317
     20 C         141.2415  144.4467  163.3058 C.ar    1  UNL1       -0.0125
     21 C         141.2733  143.8963  164.7008 C.ar    1  UNL1       -0.0065
     22 C         140.0009  143.7644  165.4842 C.ar    1  UNL1       -0.0064
     23 C         138.6968  144.1830  164.8727 C.ar    1  UNL1       -0.0022
     24 C         138.6650  144.7335  163.4777 C.ar    1  UNL1        0.0097
     25 C         139.9374  144.8654  162.6943 C.ar    1  UNL1        0.0645
     26 C         139.9056  145.4159  161.2993 C.1     1  UNL1        0.1001
     27 N         139.8738  145.9663  159.9043 N.1     1  UNL1       -0.1908
@<TRIPOS>BOND
     1    19    20    1
     2    20    21   ar
     3    21    22   ar
     4    22    18    1
     5    18     1    1
     6     1     2    1
     7     2     3    1
     8     3     4    1
     9     3     5    1
    10     5     9    1
    11     9    10    2
    12     9    11    1
    13    11    12    1
    14    12    13    1
    15    13    14    1
    16    14    15    1
    17    15    16    1
    18    16    17    3
    19     5     6    1
    20    22    23   ar
    21    23    24   ar
    22    24    25   ar
    23    25    26    1
    24    26    27    3
    25    25    20   ar
    26     6     1    1
    27    15    11    1
    28     4     7    1
    29     4     8    1
@<TRIPOS>MOLECULE
*****
 27 29 0 0 0
SMALL
GASTEIGER

@<TRIPOS>ATOM
      1 N         138.6369  139.0666  162.9353 N.3     1  UNL1       -0.2673
      2 C         138.0382  138.6712  161.6180 C.3     1  UNL1        0.0885
      3 C         137.9595  139.8976  160.7578 C.3     1  UNL1        0.0753
      4 N         137.4247  139.9596  159.3578 N.3     1  UNL1       -0.3207
      5 C         138.5096  141.0509  161.5435 C.3     1  UNL1        0.0891
      6 C         138.9282  140.5373  162.8892 C.3     1  UNL1        0.0811
      7 H         137.1166  139.0308  159.0700 H       1  UNL1        0.1189
      8 H         138.1579  140.2850  158.7278 H       1  UNL1        0.1189
      9 C         138.6215  142.4688  161.0671 C.2     1  UNL1        0.1535
     10 O         138.2679  142.8142  159.6509 O.2     1  UNL1       -0.2960
     11 C         139.0869  143.5413  162.0068 C.3     1  UNL1        0.0717
     12 C         138.3655  144.0111  163.2352 C.3     1  UNL1        0.0084
     13 C         139.1882  145.0924  163.8708 C.3     1  UNL1        0.0015
     14 C         140.4180  145.2909  163.0352 C.3     1  UNL1        0.0155
     15 C         140.3553  144.3323  161.8832 C.3     1  UNL1        0.0983
     16 C         141.3812  144.1896  160.7981 C.1     1  UNL1        0.0725
     17 N         142.4070  144.0471  159.7131 N.1     1  UNL1       -0.1959
     18 C         138.8983  138.1519  164.0950 C.3     1  UNL1        0.0992
     19 C         142.0739  140.3236  167.5878 C.3     1  UNL1        0.0317
     20 C         140.7170  139.8083  167.2094 C.ar    1  UNL1       -0.0125
     21 C         140.4861  139.2378  165.8415 C.ar    1  UNL1       -0.0065
     22 C         139.1292  138.7224  165.4630 C.ar    1  UNL1       -0.0064
     23 C         138.0032  138.7776  166.4525 C.ar    1  UNL1       -0.0022
     24 C         138.2341  139.3481  167.8204 C.ar    1  UNL1        0.0097
     25 C         139.5910  139.8634  168.1988 C.ar    1  UNL1        0.0645
     26 C         139.8218  140.4339  169.5668 C.1     1  UNL1        0.1001
     27 N         140.0527  141.0044  170.9347 N.1     1  UNL1       -0.1908
@<TRIPOS>BOND
     1    19    20    1
     2    20    21   ar
     3    21    22   ar
     4    22    18    1
     5    18     1    1
     6     1     2    1
     7     2     3    1
     8     3     4    1
     9     3     5    1
    10     5     9    1
    11     9    10    2
    12     9    11    1
    13    11    12    1
    14    12    13    1
    15    13    14    1
    16    14    15    1
    17    15    16    1
    18    16    17    3
    19     5     6    1
    20    22    23   ar
    21    23    24   ar
    22    24    25   ar
    23    25    26    1
    24    26    27    3
    25    25    20   ar
    26     6     1    1
    27    15    11    1
    28     4     7    1
    29     4     8    1
