@<TRIPOS>MOLECULE
*****
 31 33 0 0 0
SMALL
GASTEIGER

@<TRIPOS>ATOM
      1 S         143.4978  138.7758  163.9893 S.O2    1  UNL1        0.0768
      2 O         144.6926  139.6821  163.9570 O.2     1  UNL1       -0.1498
      3 O         142.3030  137.8696  164.0215 O.2     1  UNL1       -0.1498
      4 O         141.6421  140.5292  165.5648 O.2     1  UNL1       -0.2509
      5 C         142.6192  139.6409  166.2762 C.2     1  UNL1        0.3232
      6 N         142.6685  139.6292  167.7753 N.am    1  UNL1       -0.2663
      7 N         143.5471  138.7642  165.4884 N.am    1  UNL1       -0.1690
      8 H         143.3099  139.0462  168.2422 H       1  UNL1        0.1565
      9 H         144.1885  138.1812  165.9553 H       1  UNL1        0.1781
     10 C         141.7406  140.5059  168.5631 C.ar    1  UNL1        0.0630
     11 C         140.4218  139.9693  169.0349 C.ar    1  UNL1        0.0270
     12 C         139.4940  140.8460  169.8227 C.ar    1  UNL1        0.0590
     13 CL        138.1750  140.3094  170.2945 Cl      1  UNL1       -0.0822
     14 C         139.8850  142.2592  170.1385 C.ar    1  UNL1        0.0123
     15 C         141.2038  142.7958  169.6667 C.ar    1  UNL1        0.0135
     16 C         142.1316  141.9192  168.8790 C.ar    1  UNL1        0.0712
     17 CL        143.4506  142.4558  168.4071 Cl      1  UNL1       -0.0810
     18 C         143.4486  138.7875  162.4902 C.ar    1  UNL1        0.1255
     19 C         142.7224  137.7001  161.7552 C.ar    1  UNL1        0.0233
     20 C         142.6731  137.7118  160.2560 C.ar    1  UNL1        0.0383
     21 C         143.3500  138.8108  159.4919 C.ar    1  UNL1        0.1387
     22 C         144.0762  139.8982  160.2269 C.ar    1  UNL1        0.0383
     23 C         144.1255  139.8866  161.7260 C.ar    1  UNL1        0.0233
     24 O         143.3007  138.8225  157.9928 O.3     1  UNL1       -0.4740
     25 C         142.0747  138.3353  157.2788 C.3     1  UNL1        0.2226
     26 C         142.2101  137.4672  156.0630 C.3     1  UNL1        0.1200
     27 N         142.3589  135.9823  156.2145 N.3     1  UNL1       -0.2696
     28 C         141.6465  134.9379  155.4071 C.3     1  UNL1        0.0722
     29 C         142.0935  133.5912  155.8936 C.3     1  UNL1        0.0188
     30 C         143.0821  133.8033  157.0016 C.3     1  UNL1        0.0188
     31 C         143.2461  135.2811  157.1999 C.3     1  UNL1        0.0722
@<TRIPOS>BOND
     1     4     5    2
     2     5     6   am
     3     6    10    1
     4    10    11   ar
     5    11    12   ar
     6    12    13    1
     7    12    14   ar
     8    14    15   ar
     9    15    16   ar
    10    16    17    1
    11     5     7   am
    12     7     1    1
    13     1     2    2
    14     1     3    2
    15     1    18    1
    16    18    19   ar
    17    19    20   ar
    18    20    21   ar
    19    21    24    1
    20    24    25    1
    21    25    26    1
    22    26    27    1
    23    27    28    1
    24    28    29    1
    25    29    30    1
    26    30    31    1
    27    21    22   ar
    28    22    23   ar
    29    16    10   ar
    30    23    18   ar
    31    31    27    1
    32     6     8    1
    33     7     9    1
@<TRIPOS>MOLECULE
*****
 31 33 0 0 0
SMALL
GASTEIGER

@<TRIPOS>ATOM
      1 S         141.7476  144.4323  162.8001 S.O2    1  UNL1        0.0768
      2 O         140.6755  145.4502  163.0537 O.2     1  UNL1       -0.1498
      3 O         142.8198  143.4145  162.5465 O.2     1  UNL1       -0.1498
      4 O         140.5248  143.8009  160.1344 O.2     1  UNL1       -0.2509
      5 C         141.5666  144.8742  160.2463 C.2     1  UNL1        0.3232
      6 N         141.9971  145.6318  159.0253 N.am    1  UNL1       -0.2663
      7 N         142.1781  145.1899  161.5792 N.am    1  UNL1       -0.1690
      8 H         142.6809  146.3363  159.0988 H       1  UNL1        0.1565
      9 H         142.8619  145.8944  161.6526 H       1  UNL1        0.1781
     10 C         141.3856  145.3161  157.6924 C.ar    1  UNL1        0.0630
     11 C         140.2073  146.1042  157.2022 C.ar    1  UNL1        0.0270
     12 C         139.5959  145.7885  155.8694 C.ar    1  UNL1        0.0590
     13 CL        138.4175  146.5766  155.3791 Cl      1  UNL1       -0.0822
     14 C         140.1629  144.6846  155.0267 C.ar    1  UNL1        0.0123
     15 C         141.3413  143.8966  155.5169 C.ar    1  UNL1        0.0135
     16 C         141.9527  144.2123  156.8498 C.ar    1  UNL1        0.0712
     17 CL        143.1311  143.4242  157.3400 Cl      1  UNL1       -0.0810
     18 C         141.3172  143.6747  164.0210 C.ar    1  UNL1        0.1255
     19 C         142.2815  142.7579  164.7135 C.ar    1  UNL1        0.0233
     20 C         141.8510  142.0003  165.9345 C.ar    1  UNL1        0.0383
     21 C         140.4563  142.1595  166.4630 C.ar    1  UNL1        0.1387
     22 C         139.4920  143.0763  165.7705 C.ar    1  UNL1        0.0383
     23 C         139.9224  143.8339  164.5495 C.ar    1  UNL1        0.0233
     24 O         140.0259  141.4019  167.6839 O.3     1  UNL1       -0.4740
     25 C         139.7854  139.9235  167.6032 C.3     1  UNL1        0.2226
     26 C         138.5581  139.3996  166.9180 C.3     1  UNL1        0.1200
     27 N         138.6214  138.9891  165.4766 N.3     1  UNL1       -0.2696
     28 C         139.0489  137.6474  164.9599 C.3     1  UNL1        0.0722
     29 C         138.9600  137.6773  163.4629 C.3     1  UNL1        0.0188
     30 C         138.4775  139.0376  163.0543 C.3     1  UNL1        0.0188
     31 C         138.2683  139.8483  164.2989 C.3     1  UNL1        0.0722
@<TRIPOS>BOND
     1     4     5    2
     2     5     6   am
     3     6    10    1
     4    10    11   ar
     5    11    12   ar
     6    12    13    1
     7    12    14   ar
     8    14    15   ar
     9    15    16   ar
    10    16    17    1
    11     5     7   am
    12     7     1    1
    13     1     2    2
    14     1     3    2
    15     1    18    1
    16    18    19   ar
    17    19    20   ar
    18    20    21   ar
    19    21    24    1
    20    24    25    1
    21    25    26    1
    22    26    27    1
    23    27    28    1
    24    28    29    1
    25    29    30    1
    26    30    31    1
    27    21    22   ar
    28    22    23   ar
    29    16    10   ar
    30    23    18   ar
    31    31    27    1
    32     6     8    1
    33     7     9    1
@<TRIPOS>MOLECULE
*****
 31 33 0 0 0
SMALL
GASTEIGER

@<TRIPOS>ATOM
      1 S         141.1745  144.8052  161.9121 S.O2    1  UNL1        0.0768
      2 O         140.0790  145.7856  162.2099 O.2     1  UNL1       -0.1498
      3 O         142.2699  143.8248  161.6144 O.2     1  UNL1       -0.1498
      4 O         139.5725  144.0932  159.4776 O.2     1  UNL1       -0.2509
      5 C         140.6404  145.1431  159.3921 C.2     1  UNL1        0.3232
      6 N         140.9072  145.8370  158.0893 N.am    1  UNL1       -0.2663
      7 N         141.4413  145.4991  160.6094 N.am    1  UNL1       -0.1690
      8 H         141.6081  146.5261  158.0332 H       1  UNL1        0.1565
      9 H         142.1422  146.1882  160.5533 H       1  UNL1        0.1781
     10 C         140.1062  145.4810  156.8720 C.ar    1  UNL1        0.0630
     11 C         140.2807  144.1388  156.2256 C.ar    1  UNL1        0.0270
     12 C         139.4797  143.7828  155.0084 C.ar    1  UNL1        0.0590
     13 CL        139.6542  142.4405  154.3618 Cl      1  UNL1       -0.0822
     14 C         138.5043  144.7691  154.4376 C.ar    1  UNL1        0.0123
     15 C         138.3298  146.1113  155.0840 C.ar    1  UNL1        0.0135
     16 C         139.1308  146.4673  156.3013 C.ar    1  UNL1        0.0712
     17 CL        138.9563  147.8096  156.9478 Cl      1  UNL1       -0.0810
     18 C         140.9076  144.1113  163.2149 C.ar    1  UNL1        0.1255
     19 C         139.9003  144.6754  164.1726 C.ar    1  UNL1        0.0233
     20 C         139.6334  143.9815  165.4754 C.ar    1  UNL1        0.0383
     21 C         140.3738  142.7234  165.8205 C.ar    1  UNL1        0.1387
     22 C         141.3811  142.1593  164.8628 C.ar    1  UNL1        0.0383
     23 C         141.6480  142.8532  163.5600 C.ar    1  UNL1        0.0233
     24 O         140.1070  142.0295  167.1232 O.3     1  UNL1       -0.4740
     25 C         140.2397  140.5385  167.2198 C.3     1  UNL1        0.2226
     26 C         139.0782  139.6577  166.8659 C.3     1  UNL1        0.1200
     27 N         138.9178  139.1563  165.4613 N.3     1  UNL1       -0.2696
     28 C         139.2880  137.7900  164.9652 C.3     1  UNL1        0.0722
     29 C         138.9581  137.7224  163.5035 C.3     1  UNL1        0.0188
     30 C         138.3840  139.0470  163.0962 C.3     1  UNL1        0.0188
     31 C         138.3591  139.9332  164.3062 C.3     1  UNL1        0.0722
@<TRIPOS>BOND
     1     4     5    2
     2     5     6   am
     3     6    10    1
     4    10    11   ar
     5    11    12   ar
     6    12    13    1
     7    12    14   ar
     8    14    15   ar
     9    15    16   ar
    10    16    17    1
    11     5     7   am
    12     7     1    1
    13     1     2    2
    14     1     3    2
    15     1    18    1
    16    18    19   ar
    17    19    20   ar
    18    20    21   ar
    19    21    24    1
    20    24    25    1
    21    25    26    1
    22    26    27    1
    23    27    28    1
    24    28    29    1
    25    29    30    1
    26    30    31    1
    27    21    22   ar
    28    22    23   ar
    29    16    10   ar
    30    23    18   ar
    31    31    27    1
    32     6     8    1
    33     7     9    1
@<TRIPOS>MOLECULE
*****
 31 33 0 0 0
SMALL
GASTEIGER

@<TRIPOS>ATOM
      1 S         143.7078  139.0894  164.1605 S.O2    1  UNL1        0.0768
      2 O         144.8493  140.0608  164.2194 O.2     1  UNL1       -0.1498
      3 O         142.5664  138.1180  164.1016 O.2     1  UNL1       -0.1498
      4 O         141.7600  140.7167  165.7599 O.2     1  UNL1       -0.2509
      5 C         142.7331  139.8132  166.4575 C.2     1  UNL1        0.3232
      6 N         142.7323  139.7233  167.9548 N.am    1  UNL1       -0.2663
      7 N         143.7070  138.9995  165.6578 N.am    1  UNL1       -0.1690
      8 H         143.3710  139.1303  168.4127 H       1  UNL1        0.1565
      9 H         144.3457  138.4065  166.1157 H       1  UNL1        0.1781
     10 C         141.7584  140.5369  168.7545 C.ar    1  UNL1        0.0630
     11 C         140.4180  139.9654  169.1104 C.ar    1  UNL1        0.0270
     12 C         139.4442  140.7790  169.9101 C.ar    1  UNL1        0.0590
     13 CL        138.1037  140.2075  170.2661 Cl      1  UNL1       -0.0822
     14 C         139.8106  142.1642  170.3539 C.ar    1  UNL1        0.0123
     15 C         141.1510  142.7358  169.9979 C.ar    1  UNL1        0.0135
     16 C         142.1249  141.9221  169.1983 C.ar    1  UNL1        0.0712
     17 CL        143.4653  142.4937  168.8423 Cl      1  UNL1       -0.0810
     18 C         143.7086  139.1793  162.6632 C.ar    1  UNL1        0.1255
     19 C         143.3784  137.9703  161.8391 C.ar    1  UNL1        0.0233
     20 C         143.3792  138.0602  160.3418 C.ar    1  UNL1        0.0383
     21 C         143.7102  139.3592  159.6686 C.ar    1  UNL1        0.1387
     22 C         144.0404  140.5682  160.4928 C.ar    1  UNL1        0.0383
     23 C         144.0397  140.4783  161.9900 C.ar    1  UNL1        0.0233
     24 O         143.7110  139.4490  158.1714 O.3     1  UNL1       -0.4740
     25 C         142.8392  140.4550  157.4799 C.3     1  UNL1        0.2226
     26 C         141.3559  140.2418  157.4130 C.3     1  UNL1        0.1200
     27 N         140.5997  139.8392  158.6443 N.3     1  UNL1       -0.2696
     28 C         139.9274  138.5181  158.8734 C.3     1  UNL1        0.0722
     29 C         139.2952  138.5494  160.2334 C.3     1  UNL1        0.0188
     30 C         139.5770  139.8898  160.8447 C.3     1  UNL1        0.0188
     31 C         140.3832  140.6870  159.8626 C.3     1  UNL1        0.0722
@<TRIPOS>BOND
     1     4     5    2
     2     5     6   am
     3     6    10    1
     4    10    11   ar
     5    11    12   ar
     6    12    13    1
     7    12    14   ar
     8    14    15   ar
     9    15    16   ar
    10    16    17    1
    11     5     7   am
    12     7     1    1
    13     1     2    2
    14     1     3    2
    15     1    18    1
    16    18    19   ar
    17    19    20   ar
    18    20    21   ar
    19    21    24    1
    20    24    25    1
    21    25    26    1
    22    26    27    1
    23    27    28    1
    24    28    29    1
    25    29    30    1
    26    30    31    1
    27    21    22   ar
    28    22    23   ar
    29    16    10   ar
    30    23    18   ar
    31    31    27    1
    32     6     8    1
    33     7     9    1
@<TRIPOS>MOLECULE
*****
 31 33 0 0 0
SMALL
GASTEIGER

@<TRIPOS>ATOM
      1 S         142.9535  138.4520  164.2112 S.O2    1  UNL1        0.0768
      2 O         141.5842  137.8489  164.1050 O.2     1  UNL1       -0.1498
      3 O         144.3228  139.0550  164.3175 O.2     1  UNL1       -0.1498
      4 O         141.9982  140.8061  165.8067 O.2     1  UNL1       -0.2509
      5 C         142.3990  139.5402  166.5044 C.2     1  UNL1        0.3232
      6 N         142.3221  139.4513  167.9997 N.am    1  UNL1       -0.2663
      7 N         142.8766  138.3631  165.7066 N.am    1  UNL1       -0.1690
      8 H         142.5851  138.6204  168.4576 H       1  UNL1        0.1565
      9 H         143.1396  137.5322  166.1645 H       1  UNL1        0.1781
     10 C         141.8444  140.6284  168.7975 C.ar    1  UNL1        0.0630
     11 C         142.8370  141.5557  169.4337 C.ar    1  UNL1        0.0270
     12 C         142.3593  142.7328  170.2314 C.ar    1  UNL1        0.0590
     13 CL        143.3519  143.6602  170.8676 Cl      1  UNL1       -0.0822
     14 C         140.8891  142.9824  170.3929 C.ar    1  UNL1        0.0123
     15 C         139.8965  142.0551  169.7567 C.ar    1  UNL1        0.0135
     16 C         140.3742  140.8781  168.9590 C.ar    1  UNL1        0.0712
     17 CL        139.3816  139.9506  168.3227 Cl      1  UNL1       -0.0810
     18 C         143.0304  138.5409  162.7159 C.ar    1  UNL1        0.1255
     19 C         144.1320  139.3252  162.0668 C.ar    1  UNL1        0.0233
     20 C         144.2089  139.4141  160.5714 C.ar    1  UNL1        0.0383
     21 C         143.1841  138.7186  159.7251 C.ar    1  UNL1        0.1387
     22 C         142.0825  137.9343  160.3741 C.ar    1  UNL1        0.0383
     23 C         142.0056  137.8454  161.8695 C.ar    1  UNL1        0.0233
     24 O         143.2610  138.8075  158.2297 O.3     1  UNL1       -0.4740
     25 C         142.4799  137.8493  157.3803 C.3     1  UNL1        0.2226
     26 C         142.9411  136.4295  157.2334 C.3     1  UNL1        0.1200
     27 N         142.6199  135.6618  155.9854 N.3     1  UNL1       -0.2696
     28 C         142.3172  134.1948  155.9059 C.3     1  UNL1        0.0722
     29 C         142.0553  133.8528  154.4691 C.3     1  UNL1        0.0188
     30 C         142.1960  135.1083  153.6606 C.3     1  UNL1        0.0188
     31 C         142.5450  136.2264  154.5977 C.3     1  UNL1        0.0722
@<TRIPOS>BOND
     1     4     5    2
     2     5     6   am
     3     6    10    1
     4    10    11   ar
     5    11    12   ar
     6    12    13    1
     7    12    14   ar
     8    14    15   ar
     9    15    16   ar
    10    16    17    1
    11     5     7   am
    12     7     1    1
    13     1     2    2
    14     1     3    2
    15     1    18    1
    16    18    19   ar
    17    19    20   ar
    18    20    21   ar
    19    21    24    1
    20    24    25    1
    21    25    26    1
    22    26    27    1
    23    27    28    1
    24    28    29    1
    25    29    30    1
    26    30    31    1
    27    21    22   ar
    28    22    23   ar
    29    16    10   ar
    30    23    18   ar
    31    31    27    1
    32     6     8    1
    33     7     9    1
@<TRIPOS>MOLECULE
*****
 31 33 0 0 0
SMALL
GASTEIGER

@<TRIPOS>ATOM
      1 S         138.6867  139.0768  161.4091 S.O2    1  UNL1        0.0768
      2 O         137.2375  138.6966  161.3381 O.2     1  UNL1       -0.1498
      3 O         140.1360  139.4571  161.4802 O.2     1  UNL1       -0.1498
      4 O         138.1179  141.6244  159.9305 O.2     1  UNL1       -0.2509
      5 C         138.4684  140.3790  159.1716 C.2     1  UNL1        0.3232
      6 N         138.5344  140.4073  157.6733 N.am    1  UNL1       -0.2663
      7 N         138.7528  139.1052  159.9109 N.am    1  UNL1       -0.1690
      8 H         138.7644  139.5899  157.1752 H       1  UNL1        0.1565
      9 H         138.9828  138.2877  159.4128 H       1  UNL1        0.1781
     10 C         138.2500  141.6811  156.9340 C.ar    1  UNL1        0.0630
     11 C         139.3182  142.7257  156.8010 C.ar    1  UNL1        0.0270
     12 C         139.0338  143.9994  156.0617 C.ar    1  UNL1        0.0590
     13 CL        140.1021  145.0440  155.9287 Cl      1  UNL1       -0.0822
     14 C         137.6811  144.2286  155.4553 C.ar    1  UNL1        0.0123
     15 C         136.6128  143.1841  155.5883 C.ar    1  UNL1        0.0135
     16 C         136.8973  141.9103  156.3276 C.ar    1  UNL1        0.0712
     17 CL        135.8290  140.8657  156.4606 Cl      1  UNL1       -0.0810
     18 C         138.6207  139.0485  162.9074 C.ar    1  UNL1        0.1255
     19 C         138.1854  140.2695  163.6622 C.ar    1  UNL1        0.0233
     20 C         138.1194  140.2411  165.1605 C.ar    1  UNL1        0.0383
     21 C         138.4886  138.9918  165.9040 C.ar    1  UNL1        0.1387
     22 C         138.9240  137.7708  165.1492 C.ar    1  UNL1        0.0383
     23 C         138.9900  137.7991  163.6509 C.ar    1  UNL1        0.0233
     24 O         138.4226  138.9635  167.4022 O.3     1  UNL1       -0.4740
     25 C         139.2866  139.8871  168.2086 C.3     1  UNL1        0.2226
     26 C         140.6596  140.2455  167.7221 C.3     1  UNL1        0.1200
     27 N         141.5670  141.0749  168.5816 N.3     1  UNL1       -0.2696
     28 C         142.8791  140.6345  169.1600 C.3     1  UNL1        0.0722
     29 C         143.4447  141.7777  169.9495 C.3     1  UNL1        0.0188
     30 C         142.4823  142.9246  169.8589 C.3     1  UNL1        0.0188
     31 C         141.3218  142.4903  169.0135 C.3     1  UNL1        0.0722
@<TRIPOS>BOND
     1     4     5    2
     2     5     6   am
     3     6    10    1
     4    10    11   ar
     5    11    12   ar
     6    12    13    1
     7    12    14   ar
     8    14    15   ar
     9    15    16   ar
    10    16    17    1
    11     5     7   am
    12     7     1    1
    13     1     2    2
    14     1     3    2
    15     1    18    1
    16    18    19   ar
    17    19    20   ar
    18    20    21   ar
    19    21    24    1
    20    24    25    1
    21    25    26    1
    22    26    27    1
    23    27    28    1
    24    28    29    1
    25    29    30    1
    26    30    31    1
    27    21    22   ar
    28    22    23   ar
    29    16    10   ar
    30    23    18   ar
    31    31    27    1
    32     6     8    1
    33     7     9    1
@<TRIPOS>MOLECULE
*****
 31 33 0 0 0
SMALL
GASTEIGER

@<TRIPOS>ATOM
      1 S         139.9356  138.8986  161.8408 S.O2    1  UNL1        0.0768
      2 O         139.8092  140.2960  161.3106 O.2     1  UNL1       -0.1498
      3 O         140.0620  137.5011  162.3710 O.2     1  UNL1       -0.1498
      4 O         141.2655  140.0479  164.2720 O.2     1  UNL1       -0.2509
      5 C         139.7784  139.8526  164.2523 C.2     1  UNL1        0.3232
      6 N         138.9562  140.2319  165.4481 N.am    1  UNL1       -0.2663
      7 N         139.1134  139.2779  163.0367 N.am    1  UNL1       -0.1690
      8 H         137.9802  140.1038  165.4352 H       1  UNL1        0.1565
      9 H         138.1374  139.1497  163.0237 H       1  UNL1        0.1781
     10 C         139.6211  140.8066  166.6638 C.ar    1  UNL1        0.0630
     11 C         139.8956  139.9333  167.8520 C.ar    1  UNL1        0.0270
     12 C         140.5605  140.5080  169.0675 C.ar    1  UNL1        0.0590
     13 CL        140.8349  139.6346  170.2558 Cl      1  UNL1       -0.0822
     14 C         140.9509  141.9560  169.0949 C.ar    1  UNL1        0.0123
     15 C         140.6764  142.8293  167.9067 C.ar    1  UNL1        0.0135
     16 C         140.0115  142.2547  166.6911 C.ar    1  UNL1        0.0712
     17 CL        139.7371  143.1280  165.5028 Cl      1  UNL1       -0.0810
     18 C         140.7578  138.5192  160.6450 C.ar    1  UNL1        0.1255
     19 C         140.1829  138.6543  159.2661 C.ar    1  UNL1        0.0233
     20 C         141.0052  138.2749  158.0703 C.ar    1  UNL1        0.0383
     21 C         142.4022  137.7604  158.2533 C.ar    1  UNL1        0.1387
     22 C         142.9771  137.6253  159.6321 C.ar    1  UNL1        0.0383
     23 C         142.1549  138.0047  160.8280 C.ar    1  UNL1        0.0233
     24 O         143.2244  137.3811  157.0574 O.3     1  UNL1       -0.4740
     25 C         143.3616  135.9389  156.6685 C.3     1  UNL1        0.2226
     26 C         142.2046  135.2174  156.0431 C.3     1  UNL1        0.1200
     27 N         142.2074  133.7193  155.9673 N.3     1  UNL1       -0.2696
     28 C         141.2736  132.8761  155.1506 C.3     1  UNL1        0.0722
     29 C         141.6336  131.4371  155.3734 C.3     1  UNL1        0.0188
     30 C         142.7899  131.3909  156.3278 C.3     1  UNL1        0.0188
     31 C         143.1445  132.8014  156.6948 C.3     1  UNL1        0.0722
@<TRIPOS>BOND
     1     4     5    2
     2     5     6   am
     3     6    10    1
     4    10    11   ar
     5    11    12   ar
     6    12    13    1
     7    12    14   ar
     8    14    15   ar
     9    15    16   ar
    10    16    17    1
    11     5     7   am
    12     7     1    1
    13     1     2    2
    14     1     3    2
    15     1    18    1
    16    18    19   ar
    17    19    20   ar
    18    20    21   ar
    19    21    24    1
    20    24    25    1
    21    25    26    1
    22    26    27    1
    23    27    28    1
    24    28    29    1
    25    29    30    1
    26    30    31    1
    27    21    22   ar
    28    22    23   ar
    29    16    10   ar
    30    23    18   ar
    31    31    27    1
    32     6     8    1
    33     7     9    1
@<TRIPOS>MOLECULE
*****
 31 33 0 0 0
SMALL
GASTEIGER

@<TRIPOS>ATOM
      1 S         143.7996  139.1456  161.3892 S.O2    1  UNL1        0.0768
      2 O         143.5025  140.5986  161.1648 O.2     1  UNL1       -0.1498
      3 O         144.0966  137.6925  161.6136 O.2     1  UNL1       -0.1498
      4 O         141.5727  138.2556  159.5867 O.2     1  UNL1       -0.2509
      5 C         142.9349  138.5247  159.0192 C.2     1  UNL1        0.3232
      6 N         143.1836  138.3487  157.5505 N.am    1  UNL1       -0.2663
      7 N         144.0483  138.9697  159.9205 N.am    1  UNL1       -0.1690
      8 H         144.0777  138.5253  157.1780 H       1  UNL1        0.1565
      9 H         144.9424  139.1462  159.5480 H       1  UNL1        0.1781
     10 C         142.0702  137.9037  156.6492 C.ar    1  UNL1        0.0630
     11 C         141.1075  138.9107  156.0931 C.ar    1  UNL1        0.0270
     12 C         139.9941  138.4657  155.1918 C.ar    1  UNL1        0.0590
     13 CL        139.0314  139.4726  154.6357 Cl      1  UNL1       -0.0822
     14 C         139.8434  137.0137  154.8467 C.ar    1  UNL1        0.0123
     15 C         140.8061  136.0068  155.4028 C.ar    1  UNL1        0.0135
     16 C         141.9194  136.4518  156.3041 C.ar    1  UNL1        0.0712
     17 CL        142.8822  135.4448  156.8602 Cl      1  UNL1       -0.0810
     18 C         143.5508  139.3215  162.8579 C.ar    1  UNL1        0.1255
     19 C         144.2516  140.4125  163.6119 C.ar    1  UNL1        0.0233
     20 C         144.0028  140.5884  165.0807 C.ar    1  UNL1        0.0383
     21 C         143.0532  139.6733  165.7954 C.ar    1  UNL1        0.1387
     22 C         142.3524  138.5824  165.0413 C.ar    1  UNL1        0.0383
     23 C         142.6011  138.4064  163.5726 C.ar    1  UNL1        0.0233
     24 O         142.8044  139.8493  167.2640 O.3     1  UNL1       -0.4740
     25 C         142.2378  141.1389  167.7796 C.3     1  UNL1        0.2226
     26 C         140.9748  141.6924  167.1891 C.3     1  UNL1        0.1200
     27 N         139.8760  140.7640  166.7639 N.3     1  UNL1       -0.2696
     28 C         139.2469  139.6968  167.6096 C.3     1  UNL1        0.0722
     29 C         138.1955  139.0130  166.7868 C.3     1  UNL1        0.0188
     30 C         138.1748  139.6577  165.4326 C.3     1  UNL1        0.0188
     31 C         139.2134  140.7399  165.4185 C.3     1  UNL1        0.0722
@<TRIPOS>BOND
     1     4     5    2
     2     5     6   am
     3     6    10    1
     4    10    11   ar
     5    11    12   ar
     6    12    13    1
     7    12    14   ar
     8    14    15   ar
     9    15    16   ar
    10    16    17    1
    11     5     7   am
    12     7     1    1
    13     1     2    2
    14     1     3    2
    15     1    18    1
    16    18    19   ar
    17    19    20   ar
    18    20    21   ar
    19    21    24    1
    20    24    25    1
    21    25    26    1
    22    26    27    1
    23    27    28    1
    24    28    29    1
    25    29    30    1
    26    30    31    1
    27    21    22   ar
    28    22    23   ar
    29    16    10   ar
    30    23    18   ar
    31    31    27    1
    32     6     8    1
    33     7     9    1
@<TRIPOS>MOLECULE
*****
 31 33 0 0 0
SMALL
GASTEIGER

@<TRIPOS>ATOM
      1 S         138.7966  139.2604  164.1339 S.O2    1  UNL1        0.0768
      2 O         137.9364  140.4844  164.2417 O.2     1  UNL1       -0.1498
      3 O         139.6569  138.0364  164.0262 O.2     1  UNL1       -0.1498
      4 O         140.5588  141.1696  165.6340 O.2     1  UNL1       -0.2509
      5 C         139.7607  140.1416  166.3799 C.2     1  UNL1        0.3232
      6 N         139.8436  140.0682  167.8757 N.am    1  UNL1       -0.2663
      7 N         138.8796  139.1870  165.6298 N.am    1  UNL1       -0.1690
      8 H         139.3198  139.3935  168.3653 H       1  UNL1        0.1565
      9 H         138.3558  138.5123  166.1193 H       1  UNL1        0.1781
     10 C         140.7247  141.0228  168.6258 C.ar    1  UNL1        0.0630
     11 C         140.1920  142.3590  169.0510 C.ar    1  UNL1        0.0270
     12 C         141.0731  143.3135  169.8010 C.ar    1  UNL1        0.0590
     13 CL        140.5403  144.6497  170.2262 Cl      1  UNL1       -0.0822
     14 C         142.4868  142.9318  170.1258 C.ar    1  UNL1        0.0123
     15 C         143.0196  141.5957  169.7007 C.ar    1  UNL1        0.0135
     16 C         142.1385  140.6412  168.9506 C.ar    1  UNL1        0.0712
     17 CL        142.6712  139.3049  168.5254 Cl      1  UNL1       -0.0810
     18 C         138.7137  139.3338  162.6380 C.ar    1  UNL1        0.1255
     19 C         139.4814  138.3587  161.7956 C.ar    1  UNL1        0.0233
     20 C         139.3984  138.4322  160.2996 C.ar    1  UNL1        0.0383
     21 C         138.5477  139.4806  159.6462 C.ar    1  UNL1        0.1387
     22 C         137.7800  140.4557  160.4887 C.ar    1  UNL1        0.0383
     23 C         137.8629  140.3823  161.9846 C.ar    1  UNL1        0.0233
     24 O         138.4648  139.5540  158.1503 O.3     1  UNL1       -0.4740
     25 C         138.7458  140.8483  157.4462 C.3     1  UNL1        0.2226
     26 C         137.6770  141.4998  156.6195 C.3     1  UNL1        0.1200
     27 N         137.8782  142.8904  156.0944 N.3     1  UNL1       -0.2696
     28 C         136.8845  143.6855  155.3005 C.3     1  UNL1        0.0722
     29 C         137.5006  145.0166  154.9864 C.3     1  UNL1        0.0188
     30 C         138.8752  145.0441  155.5861 C.3     1  UNL1        0.0188
     31 C         139.1086  143.7301  156.2709 C.3     1  UNL1        0.0722
@<TRIPOS>BOND
     1     4     5    2
     2     5     6   am
     3     6    10    1
     4    10    11   ar
     5    11    12   ar
     6    12    13    1
     7    12    14   ar
     8    14    15   ar
     9    15    16   ar
    10    16    17    1
    11     5     7   am
    12     7     1    1
    13     1     2    2
    14     1     3    2
    15     1    18    1
    16    18    19   ar
    17    19    20   ar
    18    20    21   ar
    19    21    24    1
    20    24    25    1
    21    25    26    1
    22    26    27    1
    23    27    28    1
    24    28    29    1
    25    29    30    1
    26    30    31    1
    27    21    22   ar
    28    22    23   ar
    29    16    10   ar
    30    23    18   ar
    31    31    27    1
    32     6     8    1
    33     7     9    1
