@<TRIPOS>MOLECULE
*****
 30 33 0 0 0
SMALL
GASTEIGER

@<TRIPOS>ATOM
      1 C         139.6299  147.0560  154.6054 C.3     1  UNL1        0.0498
      2 C         139.9521  146.3048  155.8631 C.ar    1  UNL1        0.0353
      3 C         139.2288  145.0957  156.3778 C.ar    1  UNL1        0.0203
      4 C         139.8840  144.6744  157.6597 C.ar    1  UNL1        0.0913
      5 C         139.5989  143.5494  158.6101 C.ar    1  UNL1        0.2660
      6 O         138.4707  142.6007  158.3325 O.2     1  UNL1       -0.2668
      7 N         140.4421  143.3732  159.8382 N.ar    1  UNL1       -0.2644
      8 C         141.5704  144.3219  160.1157 C.ar    1  UNL1        0.2050
      9 N         141.8554  145.4469  159.1653 N.ar    1  UNL1       -0.1976
     10 C         141.0122  145.6231  157.9373 C.ar    1  UNL1        0.1478
     11 N         141.0543  146.6307  156.8270 N.ar    1  UNL1       -0.3416
     12 H         141.6932  147.3753  156.7451 H       1  UNL1        0.1671
     13 N         142.4135  144.1457  161.3437 N.pl3   1  UNL1       -0.2781
     14 C         142.0711  144.8878  162.6014 C.3     1  UNL1        0.0937
     15 C         142.9143  144.7116  163.8295 C.3     1  UNL1        0.0229
     16 C         144.0999  143.7933  163.7997 C.3     1  UNL1        0.0190
     17 C         144.4424  143.0512  162.5419 C.3     1  UNL1        0.0710
     18 N         145.6281  142.1328  162.5121 N.3     1  UNL1       -0.3208
     19 C         143.5992  143.2274  161.3139 C.3     1  UNL1        0.1089
     20 H         146.0821  142.1342  163.4255 H       1  UNL1        0.1189
     21 H         146.2884  142.4530  161.8037 H       1  UNL1        0.1189
     22 C         140.1571  142.2483  160.7885 C.3     1  UNL1        0.1391
     23 C         139.4806  142.5260  162.0982 C.ar    1  UNL1        0.0102
     24 C         138.2675  143.4070  162.1437 C.ar    1  UNL1       -0.0017
     25 C         137.5910  143.6848  163.4533 C.ar    1  UNL1       -0.0002
     26 C         138.1276  143.0816  164.7175 C.ar    1  UNL1        0.0007
     27 C         139.3407  142.2006  164.6720 C.ar    1  UNL1        0.0100
     28 C         140.0172  141.9228  163.3623 C.ar    1  UNL1        0.0663
     29 C         141.2304  141.0417  163.3168 C.1     1  UNL1        0.1002
     30 N         142.4435  140.1607  163.2713 N.1     1  UNL1       -0.1908
@<TRIPOS>BOND
     1     1     2    1
     2     2     3   ar
     3     3     4   ar
     4     4     5   ar
     5     5     6    2
     6     5     7   ar
     7     7    22    1
     8    22    23    1
     9    23    24   ar
    10    24    25   ar
    11    25    26   ar
    12    26    27   ar
    13    27    28   ar
    14    28    29    1
    15    29    30    3
    16     7     8   ar
    17     8    13    1
    18    13    14    1
    19    14    15    1
    20    15    16    1
    21    16    17    1
    22    17    18    1
    23    17    19    1
    24     8     9   ar
    25     9    10   ar
    26    10    11   ar
    27    11     2   ar
    28    10     4   ar
    29    28    23   ar
    30    19    13    1
    31    18    20    1
    32    18    21    1
    33    11    12    1
@<TRIPOS>MOLECULE
*****
 30 33 0 0 0
SMALL
GASTEIGER

@<TRIPOS>ATOM
      1 C         143.2127  139.8856  171.0740 C.3     1  UNL1        0.0498
      2 C         142.5717  140.2842  169.7778 C.ar    1  UNL1        0.0353
      3 C         141.2028  139.8854  169.3118 C.ar    1  UNL1        0.0203
      4 C         140.9721  140.5063  167.9659 C.ar    1  UNL1        0.0913
      5 C         139.8039  140.4602  167.0263 C.ar    1  UNL1        0.2660
      6 O         138.5776  139.6776  167.3920 O.2     1  UNL1       -0.2668
      7 N         139.8619  141.1967  165.7207 N.ar    1  UNL1       -0.2644
      8 C         141.0882  141.9792  165.3550 C.ar    1  UNL1        0.2050
      9 N         142.2565  142.0253  166.2947 N.ar    1  UNL1       -0.1976
     10 C         142.1984  141.2888  167.6002 C.ar    1  UNL1        0.1478
     11 N         143.1870  141.1516  168.7200 N.ar    1  UNL1       -0.3416
     12 H         144.0825  141.5592  168.7545 H       1  UNL1        0.1671
     13 N         141.1463  142.7157  164.0495 N.pl3   1  UNL1       -0.2781
     14 C         141.6212  142.0129  162.8124 C.3     1  UNL1        0.0937
     15 C         141.6793  142.7493  161.5069 C.3     1  UNL1        0.0229
     16 C         141.2624  144.1886  161.4386 C.3     1  UNL1        0.0190
     17 C         140.7874  144.8914  162.6757 C.3     1  UNL1        0.0710
     18 N         140.3706  146.3307  162.6074 N.3     1  UNL1       -0.3208
     19 C         140.7294  144.1550  163.9812 C.3     1  UNL1        0.1089
     20 H         140.4734  146.6694  161.6508 H       1  UNL1        0.1189
     21 H         140.9590  146.8850  163.2294 H       1  UNL1        0.1189
     22 C         138.6937  141.1506  164.7811 C.3     1  UNL1        0.1391
     23 C         138.6283  140.0955  163.7168 C.ar    1  UNL1        0.0102
     24 C         138.9052  138.6626  164.0633 C.ar    1  UNL1       -0.0017
     25 C         138.8399  137.6076  162.9990 C.ar    1  UNL1       -0.0002
     26 C         138.4976  137.9854  161.5883 C.ar    1  UNL1        0.0007
     27 C         138.2207  139.4183  161.2419 C.ar    1  UNL1        0.0100
     28 C         138.2861  140.4734  162.3062 C.ar    1  UNL1        0.0663
     29 C         138.0091  141.9064  161.9597 C.1     1  UNL1        0.1002
     30 N         137.7321  143.3392  161.6132 N.1     1  UNL1       -0.1908
@<TRIPOS>BOND
     1     1     2    1
     2     2     3   ar
     3     3     4   ar
     4     4     5   ar
     5     5     6    2
     6     5     7   ar
     7     7    22    1
     8    22    23    1
     9    23    24   ar
    10    24    25   ar
    11    25    26   ar
    12    26    27   ar
    13    27    28   ar
    14    28    29    1
    15    29    30    3
    16     7     8   ar
    17     8    13    1
    18    13    14    1
    19    14    15    1
    20    15    16    1
    21    16    17    1
    22    17    18    1
    23    17    19    1
    24     8     9   ar
    25     9    10   ar
    26    10    11   ar
    27    11     2   ar
    28    10     4   ar
    29    28    23   ar
    30    19    13    1
    31    18    20    1
    32    18    21    1
    33    11    12    1
@<TRIPOS>MOLECULE
*****
 30 33 0 0 0
SMALL
GASTEIGER

@<TRIPOS>ATOM
      1 C         135.6865  142.1645  154.6555 C.3     1  UNL1        0.0498
      2 C         136.4580  141.9246  155.9193 C.ar    1  UNL1        0.0353
      3 C         137.3346  142.9201  156.6196 C.ar    1  UNL1        0.0203
      4 C         137.9068  142.2578  157.8378 C.ar    1  UNL1        0.0913
      5 C         138.8364  142.7525  158.9060 C.ar    1  UNL1        0.2660
      6 O         139.3594  144.1574  158.8534 O.2     1  UNL1       -0.2668
      7 N         139.2432  141.8423  160.0268 N.ar    1  UNL1       -0.2644
      8 C         138.7202  140.4374  160.0794 C.ar    1  UNL1        0.2050
      9 N         137.7905  139.9427  159.0111 N.ar    1  UNL1       -0.1976
     10 C         137.3838  140.8529  157.8904 C.ar    1  UNL1        0.1478
     11 N         136.4885  140.6470  156.7047 N.ar    1  UNL1       -0.3416
     12 H         136.0055  139.8187  156.4812 H       1  UNL1        0.1671
     13 N         139.1269  139.5272  161.2001 N.pl3   1  UNL1       -0.2781
     14 C         138.2089  139.3192  162.3680 C.3     1  UNL1        0.0937
     15 C         138.6156  138.4090  163.4888 C.3     1  UNL1        0.0229
     16 C         139.9402  137.7068  163.4417 C.3     1  UNL1        0.0190
     17 C         140.8582  137.9148  162.2737 C.3     1  UNL1        0.0710
     18 N         142.1828  137.2126  162.2265 N.3     1  UNL1       -0.3208
     19 C         140.4515  138.8250  161.1530 C.3     1  UNL1        0.1089
     20 H         142.2938  136.6395  163.0630 H       1  UNL1        0.1189
     21 H         142.9324  137.9031  162.1855 H       1  UNL1        0.1189
     22 C         140.1728  142.3370  161.0950 C.3     1  UNL1        0.1391
     23 C         139.6312  143.1058  162.2635 C.ar    1  UNL1        0.0102
     24 C         138.2109  142.9031  162.7013 C.ar    1  UNL1       -0.0017
     25 C         137.6692  143.6719  163.8698 C.ar    1  UNL1       -0.0002
     26 C         138.5479  144.6435  164.6007 C.ar    1  UNL1        0.0007
     27 C         139.9681  144.8461  164.1629 C.ar    1  UNL1        0.0100
     28 C         140.5098  144.0773  162.9943 C.ar    1  UNL1        0.0663
     29 C         141.9302  144.2801  162.5566 C.1     1  UNL1        0.1002
     30 N         143.3505  144.4828  162.1189 N.1     1  UNL1       -0.1908
@<TRIPOS>BOND
     1     1     2    1
     2     2     3   ar
     3     3     4   ar
     4     4     5   ar
     5     5     6    2
     6     5     7   ar
     7     7    22    1
     8    22    23    1
     9    23    24   ar
    10    24    25   ar
    11    25    26   ar
    12    26    27   ar
    13    27    28   ar
    14    28    29    1
    15    29    30    3
    16     7     8   ar
    17     8    13    1
    18    13    14    1
    19    14    15    1
    20    15    16    1
    21    16    17    1
    22    17    18    1
    23    17    19    1
    24     8     9   ar
    25     9    10   ar
    26    10    11   ar
    27    11     2   ar
    28    10     4   ar
    29    28    23   ar
    30    19    13    1
    31    18    20    1
    32    18    21    1
    33    11    12    1
@<TRIPOS>MOLECULE
*****
 30 33 0 0 0
SMALL
GASTEIGER

@<TRIPOS>ATOM
      1 C         140.1244  145.7719  158.4135 C.3     1  UNL1        0.0498
      2 C         140.2155  144.8554  159.5974 C.ar    1  UNL1        0.0353
      3 C         140.9981  145.1100  160.8515 C.ar    1  UNL1        0.0203
      4 C         140.8062  143.9353  161.7643 C.ar    1  UNL1        0.0913
      5 C         141.3357  143.6319  163.1345 C.ar    1  UNL1        0.2660
      6 O         142.2369  144.6126  163.8244 O.2     1  UNL1       -0.2668
      7 N         140.9639  142.3477  163.8149 N.ar    1  UNL1       -0.2644
      8 C         140.0627  141.3670  163.1249 C.ar    1  UNL1        0.2050
      9 N         139.5333  141.6705  161.7546 N.ar    1  UNL1       -0.1976
     10 C         139.9050  142.9546  161.0743 C.ar    1  UNL1        0.1478
     11 N         139.5399  143.5232  159.7352 N.ar    1  UNL1       -0.3416
     12 H         138.9589  143.0969  159.0644 H       1  UNL1        0.1671
     13 N         139.6910  140.0829  163.8052 N.pl3   1  UNL1       -0.2781
     14 C         140.2586  138.7835  163.3162 C.3     1  UNL1        0.0937
     15 C         139.8869  137.4993  163.9965 C.3     1  UNL1        0.0229
     16 C         138.9475  137.5146  165.1658 C.3     1  UNL1        0.0190
     17 C         138.3798  138.8142  165.6548 C.3     1  UNL1        0.0710
     18 N         137.4404  138.8295  166.8242 N.3     1  UNL1       -0.3208
     19 C         138.7516  140.0983  164.9746 C.3     1  UNL1        0.1089
     20 H         137.3000  137.8767  167.1600 H       1  UNL1        0.1189
     21 H         136.5450  139.2238  166.5358 H       1  UNL1        0.1189
     22 C         141.4934  142.0444  165.1851 C.3     1  UNL1        0.1391
     23 C         142.4016  140.8692  165.3950 C.ar    1  UNL1        0.0102
     24 C         143.5230  140.6069  164.4339 C.ar    1  UNL1       -0.0017
     25 C         144.4313  139.4318  164.6438 C.ar    1  UNL1       -0.0002
     26 C         144.2182  138.5189  165.8148 C.ar    1  UNL1        0.0007
     27 C         143.0968  138.7812  166.7759 C.ar    1  UNL1        0.0100
     28 C         142.1886  139.9563  166.5660 C.ar    1  UNL1        0.0663
     29 C         141.0672  140.2186  167.5271 C.1     1  UNL1        0.1002
     30 N         139.9458  140.4808  168.4882 N.1     1  UNL1       -0.1908
@<TRIPOS>BOND
     1     1     2    1
     2     2     3   ar
     3     3     4   ar
     4     4     5   ar
     5     5     6    2
     6     5     7   ar
     7     7    22    1
     8    22    23    1
     9    23    24   ar
    10    24    25   ar
    11    25    26   ar
    12    26    27   ar
    13    27    28   ar
    14    28    29    1
    15    29    30    3
    16     7     8   ar
    17     8    13    1
    18    13    14    1
    19    14    15    1
    20    15    16    1
    21    16    17    1
    22    17    18    1
    23    17    19    1
    24     8     9   ar
    25     9    10   ar
    26    10    11   ar
    27    11     2   ar
    28    10     4   ar
    29    28    23   ar
    30    19    13    1
    31    18    20    1
    32    18    21    1
    33    11    12    1
@<TRIPOS>MOLECULE
*****
 30 33 0 0 0
SMALL
GASTEIGER

@<TRIPOS>ATOM
      1 C         142.9347  139.8788  171.0115 C.3     1  UNL1        0.0498
      2 C         142.4738  140.2625  169.6367 C.ar    1  UNL1        0.0353
      3 C         142.7656  139.5163  168.3686 C.ar    1  UNL1        0.0203
      4 C         142.1122  140.2525  167.2367 C.ar    1  UNL1        0.0913
      5 C         142.0608  139.9842  165.7618 C.ar    1  UNL1        0.2660
      6 O         142.7565  138.7830  165.1933 O.2     1  UNL1       -0.2668
      7 N         141.3137  140.9171  164.8554 N.ar    1  UNL1       -0.2644
      8 C         140.6180  142.1183  165.4239 C.ar    1  UNL1        0.2050
      9 N         140.6695  142.3865  166.8989 N.ar    1  UNL1       -0.1976
     10 C         141.4165  141.4536  167.8052 C.ar    1  UNL1        0.1478
     11 N         141.6400  141.4598  169.2885 N.ar    1  UNL1       -0.3416
     12 H         141.2992  142.1318  169.9222 H       1  UNL1        0.1671
     13 N         139.8710  143.0512  164.5175 N.pl3   1  UNL1       -0.2781
     14 C         138.4223  142.8048  164.2169 C.3     1  UNL1        0.0937
     15 C         137.6751  143.7377  163.3105 C.3     1  UNL1        0.0229
     16 C         138.3768  144.9170  162.7047 C.3     1  UNL1        0.0190
     17 C         139.8256  145.1634  163.0054 C.3     1  UNL1        0.0710
     18 N         140.5273  146.3427  162.3997 N.3     1  UNL1       -0.3208
     19 C         140.5727  144.2305  163.9118 C.3     1  UNL1        0.1089
     20 H         139.8735  146.8641  161.8156 H       1  UNL1        0.1189
     21 H         141.3080  146.0177  161.8294 H       1  UNL1        0.1189
     22 C         141.2624  140.6489  163.3805 C.3     1  UNL1        0.1391
     23 C         140.1342  139.8465  162.8029 C.ar    1  UNL1        0.0102
     24 C         139.7276  138.5536  163.4456 C.ar    1  UNL1       -0.0017
     25 C         138.5995  137.7512  162.8680 C.ar    1  UNL1       -0.0002
     26 C         137.8780  138.2417  161.6479 C.ar    1  UNL1        0.0007
     27 C         138.2846  139.5346  161.0053 C.ar    1  UNL1        0.0100
     28 C         139.4128  140.3370  161.5828 C.ar    1  UNL1        0.0663
     29 C         139.8194  141.6300  160.9401 C.1     1  UNL1        0.1002
     30 N         140.2259  142.9229  160.2974 N.1     1  UNL1       -0.1908
@<TRIPOS>BOND
     1     1     2    1
     2     2     3   ar
     3     3     4   ar
     4     4     5   ar
     5     5     6    2
     6     5     7   ar
     7     7    22    1
     8    22    23    1
     9    23    24   ar
    10    24    25   ar
    11    25    26   ar
    12    26    27   ar
    13    27    28   ar
    14    28    29    1
    15    29    30    3
    16     7     8   ar
    17     8    13    1
    18    13    14    1
    19    14    15    1
    20    15    16    1
    21    16    17    1
    22    17    18    1
    23    17    19    1
    24     8     9   ar
    25     9    10   ar
    26    10    11   ar
    27    11     2   ar
    28    10     4   ar
    29    28    23   ar
    30    19    13    1
    31    18    20    1
    32    18    21    1
    33    11    12    1
@<TRIPOS>MOLECULE
*****
 30 33 0 0 0
SMALL
GASTEIGER

@<TRIPOS>ATOM
      1 C         141.7125  145.8823  157.9673 C.3     1  UNL1        0.0498
      2 C         141.4718  144.9389  159.1084 C.ar    1  UNL1        0.0353
      3 C         140.2119  144.8350  159.9158 C.ar    1  UNL1        0.0203
      4 C         140.4102  143.7657  160.9489 C.ar    1  UNL1        0.0913
      5 C         139.5106  143.2273  162.0215 C.ar    1  UNL1        0.2660
      6 O         138.1281  143.7843  162.1904 O.2     1  UNL1       -0.2668
      7 N         139.9934  142.1318  162.9253 N.ar    1  UNL1       -0.2644
      8 C         141.3758  141.5747  162.7564 C.ar    1  UNL1        0.2050
      9 N         142.2755  142.1133  161.6837 N.ar    1  UNL1       -0.1976
     10 C         141.7927  143.2087  160.7800 C.ar    1  UNL1        0.1478
     11 N         142.4488  143.9338  159.6425 N.ar    1  UNL1       -0.3416
     12 H         143.3605  143.7775  159.3056 H       1  UNL1        0.1671
     13 N         141.8586  140.4793  163.6602 N.pl3   1  UNL1       -0.2781
     14 C         142.8018  140.7945  164.7832 C.3     1  UNL1        0.0937
     15 C         143.2846  139.6990  165.6870 C.3     1  UNL1        0.0229
     16 C         142.8243  138.2883  165.4678 C.3     1  UNL1        0.0190
     17 C         141.8811  137.9731  164.3447 C.3     1  UNL1        0.0710
     18 N         141.4208  136.5624  164.1255 N.3     1  UNL1       -0.3208
     19 C         141.3983  139.0686  163.4410 C.3     1  UNL1        0.1089
     20 H         141.8443  135.9539  164.8260 H       1  UNL1        0.1189
     21 H         141.7001  136.2545  163.1941 H       1  UNL1        0.1189
     22 C         139.0937  141.5933  163.9980 C.3     1  UNL1        0.1391
     23 C         139.5062  141.6822  165.4374 C.ar    1  UNL1        0.0102
     24 C         140.0015  142.9829  165.9967 C.ar    1  UNL1       -0.0017
     25 C         140.4141  143.0717  167.4361 C.ar    1  UNL1       -0.0002
     26 C         140.3313  141.8599  168.3162 C.ar    1  UNL1        0.0007
     27 C         139.8360  140.5593  167.7569 C.ar    1  UNL1        0.0100
     28 C         139.4235  140.4704  166.3175 C.ar    1  UNL1        0.0663
     29 C         138.9281  139.1696  165.7582 C.1     1  UNL1        0.1002
     30 N         138.4328  137.8689  165.1990 N.1     1  UNL1       -0.1908
@<TRIPOS>BOND
     1     1     2    1
     2     2     3   ar
     3     3     4   ar
     4     4     5   ar
     5     5     6    2
     6     5     7   ar
     7     7    22    1
     8    22    23    1
     9    23    24   ar
    10    24    25   ar
    11    25    26   ar
    12    26    27   ar
    13    27    28   ar
    14    28    29    1
    15    29    30    3
    16     7     8   ar
    17     8    13    1
    18    13    14    1
    19    14    15    1
    20    15    16    1
    21    16    17    1
    22    17    18    1
    23    17    19    1
    24     8     9   ar
    25     9    10   ar
    26    10    11   ar
    27    11     2   ar
    28    10     4   ar
    29    28    23   ar
    30    19    13    1
    31    18    20    1
    32    18    21    1
    33    11    12    1
@<TRIPOS>MOLECULE
*****
 30 33 0 0 0
SMALL
GASTEIGER

@<TRIPOS>ATOM
      1 C         142.4280  136.7153  154.9171 C.3     1  UNL1        0.0498
      2 C         142.3866  137.4708  156.2123 C.ar    1  UNL1        0.0353
      3 C         141.1902  137.6283  157.1033 C.ar    1  UNL1        0.0203
      4 C         141.5985  138.4563  158.2856 C.ar    1  UNL1        0.0913
      5 C         140.8383  138.9334  159.4874 C.ar    1  UNL1        0.2660
      6 O         139.3895  138.5792  159.6477 O.2     1  UNL1       -0.2668
      7 N         141.5268  139.7649  160.5289 N.ar    1  UNL1       -0.2644
      8 C         142.9755  140.1191  160.3687 C.ar    1  UNL1        0.2050
      9 N         143.7357  139.6419  159.1668 N.ar    1  UNL1       -0.1976
     10 C         143.0472  138.8105  158.1253 C.ar    1  UNL1        0.1478
     11 N         143.5343  138.2014  156.8440 N.ar    1  UNL1       -0.3416
     12 H         144.4470  138.2693  156.4812 H       1  UNL1        0.1671
     13 N         143.6640  140.9504  161.4102 N.pl3   1  UNL1       -0.2781
     14 C         144.5104  140.2901  162.4578 C.3     1  UNL1        0.0937
     15 C         145.1990  141.1215  163.4994 C.3     1  UNL1        0.0229
     16 C         145.0411  142.6131  163.4932 C.3     1  UNL1        0.0190
     17 C         144.1946  143.2734  162.4455 C.3     1  UNL1        0.0710
     18 N         144.0368  144.7651  162.4394 N.3     1  UNL1       -0.3208
     19 C         143.5061  142.4421  161.4040 C.3     1  UNL1        0.1089
     20 H         144.5691  145.1665  163.2113 H       1  UNL1        0.1189
     21 H         143.0507  145.0031  162.5464 H       1  UNL1        0.1189
     22 C         140.7665  140.2420  161.7307 C.3     1  UNL1        0.1391
     23 C         140.4233  139.2819  162.8309 C.ar    1  UNL1        0.0102
     24 C         141.4018  138.2173  163.2297 C.ar    1  UNL1       -0.0017
     25 C         141.0586  137.2572  164.3299 C.ar    1  UNL1       -0.0002
     26 C         139.7368  137.3617  165.0313 C.ar    1  UNL1        0.0007
     27 C         138.7583  138.4263  164.6325 C.ar    1  UNL1        0.0100
     28 C         139.1016  139.3864  163.5323 C.ar    1  UNL1        0.0663
     29 C         138.1229  140.4510  163.1335 C.1     1  UNL1        0.1002
     30 N         137.1444  141.5156  162.7347 N.1     1  UNL1       -0.1908
@<TRIPOS>BOND
     1     1     2    1
     2     2     3   ar
     3     3     4   ar
     4     4     5   ar
     5     5     6    2
     6     5     7   ar
     7     7    22    1
     8    22    23    1
     9    23    24   ar
    10    24    25   ar
    11    25    26   ar
    12    26    27   ar
    13    27    28   ar
    14    28    29    1
    15    29    30    3
    16     7     8   ar
    17     8    13    1
    18    13    14    1
    19    14    15    1
    20    15    16    1
    21    16    17    1
    22    17    18    1
    23    17    19    1
    24     8     9   ar
    25     9    10   ar
    26    10    11   ar
    27    11     2   ar
    28    10     4   ar
    29    28    23   ar
    30    19    13    1
    31    18    20    1
    32    18    21    1
    33    11    12    1
@<TRIPOS>MOLECULE
*****
 30 33 0 0 0
SMALL
GASTEIGER

@<TRIPOS>ATOM
      1 C         142.9567  137.4473  156.6396 C.3     1  UNL1        0.0498
      2 C         142.4899  138.1520  157.8787 C.ar    1  UNL1        0.0353
      3 C         142.8573  137.7938  159.2882 C.ar    1  UNL1        0.0203
      4 C         142.1681  138.7591  160.2065 C.ar    1  UNL1        0.0913
      5 C         142.1606  138.8920  161.7005 C.ar    1  UNL1        0.2660
      6 O         142.9540  137.9372  162.5425 O.2     1  UNL1       -0.2668
      7 N         141.3595  139.9797  162.3527 N.ar    1  UNL1       -0.2644
      8 C         140.5660  140.9345  161.5107 C.ar    1  UNL1        0.2050
      9 N         140.5737  140.8015  160.0166 N.ar    1  UNL1       -0.1976
     10 C         141.3747  139.7138  159.3645 C.ar    1  UNL1        0.1478
     11 N         141.5735  139.3386  157.9259 N.ar    1  UNL1       -0.3416
     12 H         141.1730  139.7917  157.1490 H       1  UNL1        0.1671
     13 N         139.7650  142.0221  162.1628 N.pl3   1  UNL1       -0.2781
     14 C         138.3476  141.7627  162.5795 C.3     1  UNL1        0.0937
     15 C         137.5465  142.8504  163.2316 C.3     1  UNL1        0.0229
     16 C         138.1629  144.1975  163.4671 C.3     1  UNL1        0.0190
     17 C         139.5803  144.4569  163.0504 C.3     1  UNL1        0.0710
     18 N         140.1967  145.8040  163.2858 N.3     1  UNL1       -0.3208
     19 C         140.3814  143.3692  162.3983 C.3     1  UNL1        0.1089
     20 H         139.5152  146.4159  163.7348 H       1  UNL1        0.1189
     21 H         140.4810  146.2085  162.3936 H       1  UNL1        0.1189
     22 C         141.3519  140.1126  163.8467 C.3     1  UNL1        0.1391
     23 C         140.2693  139.4578  164.6525 C.ar    1  UNL1        0.0102
     24 C         139.8982  138.0286  164.3887 C.ar    1  UNL1       -0.0017
     25 C         138.8156  137.3739  165.1944 C.ar    1  UNL1       -0.0002
     26 C         138.1041  138.1483  166.2640 C.ar    1  UNL1        0.0007
     27 C         138.4752  139.5775  166.5278 C.ar    1  UNL1        0.0100
     28 C         139.5578  140.2323  165.7220 C.ar    1  UNL1        0.0663
     29 C         139.9288  141.6615  165.9859 C.1     1  UNL1        0.1002
     30 N         140.2999  143.0907  166.2498 N.1     1  UNL1       -0.1908
@<TRIPOS>BOND
     1     1     2    1
     2     2     3   ar
     3     3     4   ar
     4     4     5   ar
     5     5     6    2
     6     5     7   ar
     7     7    22    1
     8    22    23    1
     9    23    24   ar
    10    24    25   ar
    11    25    26   ar
    12    26    27   ar
    13    27    28   ar
    14    28    29    1
    15    29    30    3
    16     7     8   ar
    17     8    13    1
    18    13    14    1
    19    14    15    1
    20    15    16    1
    21    16    17    1
    22    17    18    1
    23    17    19    1
    24     8     9   ar
    25     9    10   ar
    26    10    11   ar
    27    11     2   ar
    28    10     4   ar
    29    28    23   ar
    30    19    13    1
    31    18    20    1
    32    18    21    1
    33    11    12    1
@<TRIPOS>MOLECULE
*****
 30 33 0 0 0
SMALL
GASTEIGER

@<TRIPOS>ATOM
      1 C         140.9153  146.4370  155.7043 C.3     1  UNL1        0.0498
      2 C         141.1778  145.7692  157.0215 C.ar    1  UNL1        0.0353
      3 C         140.2680  145.7834  158.2140 C.ar    1  UNL1        0.0203
      4 C         140.9242  144.9930  159.3071 C.ar    1  UNL1        0.0913
      5 C         140.4939  144.6660  160.7063 C.ar    1  UNL1        0.2660
      6 O         139.1786  145.1687  161.2233 O.2     1  UNL1       -0.2668
      7 N         141.3789  143.8363  161.5886 N.ar    1  UNL1       -0.2644
      8 C         142.6942  143.3337  161.0717 C.ar    1  UNL1        0.2050
      9 N         143.1245  143.6607  159.6724 N.ar    1  UNL1       -0.1976
     10 C         142.2395  144.4903  158.7901 C.ar    1  UNL1        0.1478
     11 N         142.3962  144.9701  157.3776 N.ar    1  UNL1       -0.3416
     12 H         143.1640  144.7917  156.7877 H       1  UNL1        0.1671
     13 N         143.5792  142.5041  161.9539 N.pl3   1  UNL1       -0.2781
     14 C         144.4182  143.1639  163.0078 C.3     1  UNL1        0.0937
     15 C         145.3032  142.3342  163.8902 C.3     1  UNL1        0.0229
     16 C         145.3493  140.8448  163.7185 C.3     1  UNL1        0.0190
     17 C         144.5103  140.1850  162.6645 C.3     1  UNL1        0.0710
     18 N         144.5564  138.6956  162.4928 N.3     1  UNL1       -0.3208
     19 C         143.6253  141.0146  161.7822 C.3     1  UNL1        0.1089
     20 H         145.2050  138.2951  163.1706 H       1  UNL1        0.1189
     21 H         144.8703  138.4717  161.5485 H       1  UNL1        0.1189
     22 C         140.9486  143.5094  162.9879 C.3     1  UNL1        0.1391
     23 C         139.9552  142.4119  163.2299 C.ar    1  UNL1        0.0102
     24 C         140.0831  141.1094  162.4969 C.ar    1  UNL1       -0.0017
     25 C         139.0897  140.0119  162.7390 C.ar    1  UNL1       -0.0002
     26 C         137.9684  140.2168  163.7140 C.ar    1  UNL1        0.0007
     27 C         137.8406  141.5192  164.4470 C.ar    1  UNL1        0.0100
     28 C         138.8340  142.6167  164.2050 C.ar    1  UNL1        0.0663
     29 C         138.7061  143.9192  164.9380 C.1     1  UNL1        0.1002
     30 N         138.5782  145.2216  165.6711 N.1     1  UNL1       -0.1908
@<TRIPOS>BOND
     1     1     2    1
     2     2     3   ar
     3     3     4   ar
     4     4     5   ar
     5     5     6    2
     6     5     7   ar
     7     7    22    1
     8    22    23    1
     9    23    24   ar
    10    24    25   ar
    11    25    26   ar
    12    26    27   ar
    13    27    28   ar
    14    28    29    1
    15    29    30    3
    16     7     8   ar
    17     8    13    1
    18    13    14    1
    19    14    15    1
    20    15    16    1
    21    16    17    1
    22    17    18    1
    23    17    19    1
    24     8     9   ar
    25     9    10   ar
    26    10    11   ar
    27    11     2   ar
    28    10     4   ar
    29    28    23   ar
    30    19    13    1
    31    18    20    1
    32    18    21    1
    33    11    12    1
