@<TRIPOS>MOLECULE
*****
 34 38 0 0 0
SMALL
GASTEIGER

@<TRIPOS>ATOM
      1 N         143.5323  139.9769  159.7586 N.3     1  UNL1       -0.2713
      2 C         142.8530  138.6423  159.8450 C.3     1  UNL1        0.0768
      3 C         142.2545  137.9736  161.0470 C.3     1  UNL1        0.0433
      4 C         142.1876  138.4743  162.4593 C.ar    1  UNL1       -0.0247
      5 C         141.5003  137.4893  163.3579 C.ar    1  UNL1       -0.0045
      6 C         141.3279  137.7975  164.8158 C.ar    1  UNL1        0.0011
      7 C         141.8428  139.0906  165.3751 C.ar    1  UNL1        0.0170
      8 C         142.5301  140.0756  164.4764 C.ar    1  UNL1       -0.0030
      9 C         142.7025  139.7674  163.0186 C.ar    1  UNL1       -0.0246
     10 C         143.4116  140.8792  162.3036 C.3     1  UNL1        0.0433
     11 C         143.7808  140.9723  160.8527 C.3     1  UNL1        0.0768
     12 C         141.6705  139.3987  166.8329 C.ar    1  UNL1        0.0791
     13 C         142.7623  139.4396  167.8605 C.ar    1  UNL1        0.0352
     14 C         142.1426  139.7862  169.1818 C.ar    1  UNL1        0.0804
     15 C         142.8701  139.9336  170.4853 C.3     1  UNL1        0.0540
     16 N         140.6677  139.9597  168.9708 N.ar    1  UNL1       -0.1736
     17 N         140.3758  139.7202  167.5191 N.ar    1  UNL1       -0.2492
     18 C         139.0264  139.7899  166.8679 C.3     1  UNL1        0.1537
     19 C         144.0286  140.3676  158.3980 C.3     1  UNL1        0.0843
     20 C         143.0788  140.4142  157.2381 C.3     1  UNL1        0.0824
     21 S         141.9977  141.4533  157.1952 S.3     1  UNL1       -0.0742
     22 C         141.2444  143.6359  160.3152 C.ar    1  UNL1        0.1862
     23 N         142.2583  144.4839  159.6061 N.ar    1  UNL1       -0.1266
     24 N         142.6639  143.7696  158.3511 N.ar    1  UNL1       -0.1221
     25 C         141.9007  142.4800  158.2844 C.ar    1  UNL1        0.1933
     26 N         141.0233  142.3974  159.4983 N.ar    1  UNL1       -0.2872
     27 C         140.0891  141.2736  159.8360 C.3     1  UNL1        0.1340
     28 C         138.5464  144.9643  165.5071 C.3     1  UNL1        0.0538
     29 C         139.2209  144.6322  164.2091 C.ar    1  UNL1        0.0785
     30 C         138.4364  144.6481  162.9306 C.ar    1  UNL1        0.1136
     31 N         139.1110  144.3160  161.6327 N.ar    1  UNL1       -0.2379
     32 C         140.5699  143.9680  161.6132 C.ar    1  UNL1        0.1362
     33 C         141.3544  143.9521  162.8916 C.ar    1  UNL1        0.1206
     34 N         140.6798  144.2842  164.1895 N.ar    1  UNL1       -0.2449
@<TRIPOS>BOND
     1    28    29    1
     2    29    30   ar
     3    30    31   ar
     4    31    32   ar
     5    32    22    1
     6    22    23   ar
     7    23    24   ar
     8    24    25   ar
     9    25    21    1
    10    21    20    1
    11    20    19    1
    12    19     1    1
    13     1     2    1
    14     2     3    1
    15     3     4    1
    16     4     5   ar
    17     5     6   ar
    18     6     7   ar
    19     7    12    1
    20    12    13   ar
    21    13    14   ar
    22    14    15    1
    23    14    16   ar
    24    16    17   ar
    25    17    18    1
    26     7     8   ar
    27     8     9   ar
    28     9    10    1
    29    10    11    1
    30    25    26   ar
    31    26    27    1
    32    32    33   ar
    33    33    34   ar
    34    34    29   ar
    35    26    22   ar
    36    11     1    1
    37     9     4   ar
    38    17    12   ar
@<TRIPOS>MOLECULE
*****
 34 38 0 0 0
SMALL
GASTEIGER

@<TRIPOS>ATOM
      1 N         138.3777  140.5528  159.4008 N.3     1  UNL1       -0.2713
      2 C         138.9155  139.1593  159.5388 C.3     1  UNL1        0.0768
      3 C         139.2661  138.4119  160.7913 C.3     1  UNL1        0.0433
      4 C         139.1655  138.8734  162.2149 C.ar    1  UNL1       -0.0247
      5 C         139.6208  137.8096  163.1693 C.ar    1  UNL1       -0.0045
      6 C         139.6001  138.0686  164.6466 C.ar    1  UNL1        0.0011
      7 C         139.1241  139.3915  165.1696 C.ar    1  UNL1        0.0170
      8 C         138.6687  140.4553  164.2151 C.ar    1  UNL1       -0.0030
      9 C         138.6894  140.1963  162.7378 C.ar    1  UNL1       -0.0246
     10 C         138.1964  141.3844  161.9662 C.3     1  UNL1        0.0433
     11 C         138.0577  141.5429  160.4810 C.3     1  UNL1        0.0768
     12 C         139.1034  139.6505  166.6469 C.ar    1  UNL1        0.0791
     13 C         139.9829  140.6155  167.3852 C.ar    1  UNL1        0.0352
     14 C         139.6226  140.5514  168.8399 C.ar    1  UNL1        0.0804
     15 C         140.2537  141.3515  169.9406 C.3     1  UNL1        0.0540
     16 N         138.5204  139.5468  169.0006 N.ar    1  UNL1       -0.1736
     17 N         138.1994  138.9899  167.6453 N.ar    1  UNL1       -0.2492
     18 C         137.1576  137.9544  167.3416 C.3     1  UNL1        0.1537
     19 C         138.1268  141.0174  157.9968 C.3     1  UNL1        0.0843
     20 C         139.2468  141.0292  156.9992 C.3     1  UNL1        0.0824
     21 S         140.1583  142.2171  156.9089 S.3     1  UNL1       -0.0742
     22 C         141.4079  143.6830  160.2787 C.ar    1  UNL1        0.1862
     23 N         140.5266  144.7934  159.7886 N.ar    1  UNL1       -0.1266
     24 N         139.9512  144.3795  158.4666 N.ar    1  UNL1       -0.1221
     25 C         140.4769  143.0132  158.1397 C.ar    1  UNL1        0.1933
     26 N         141.3772  142.5827  159.2596 N.ar    1  UNL1       -0.2872
     27 C         142.1169  141.2807  159.3454 C.3     1  UNL1        0.1340
     28 C         144.5112  143.6482  165.4137 C.3     1  UNL1        0.0538
     29 C         143.7354  143.6569  164.1299 C.ar    1  UNL1        0.0785
     30 C         144.4492  143.8395  162.8234 C.ar    1  UNL1        0.1136
     31 N         143.6734  143.8482  161.5397 N.ar    1  UNL1       -0.2379
     32 C         142.1837  143.6743  161.5625 C.ar    1  UNL1        0.1362
     33 C         141.4698  143.4917  162.8690 C.ar    1  UNL1        0.1206
     34 N         142.2456  143.4830  164.1527 N.ar    1  UNL1       -0.2449
@<TRIPOS>BOND
     1    28    29    1
     2    29    30   ar
     3    30    31   ar
     4    31    32   ar
     5    32    22    1
     6    22    23   ar
     7    23    24   ar
     8    24    25   ar
     9    25    21    1
    10    21    20    1
    11    20    19    1
    12    19     1    1
    13     1     2    1
    14     2     3    1
    15     3     4    1
    16     4     5   ar
    17     5     6   ar
    18     6     7   ar
    19     7    12    1
    20    12    13   ar
    21    13    14   ar
    22    14    15    1
    23    14    16   ar
    24    16    17   ar
    25    17    18    1
    26     7     8   ar
    27     8     9   ar
    28     9    10    1
    29    10    11    1
    30    25    26   ar
    31    26    27    1
    32    32    33   ar
    33    33    34   ar
    34    34    29   ar
    35    26    22   ar
    36    11     1    1
    37     9     4   ar
    38    17    12   ar
@<TRIPOS>MOLECULE
*****
 34 38 0 0 0
SMALL
GASTEIGER

@<TRIPOS>ATOM
      1 N         144.0038  141.2170  159.8245 N.3     1  UNL1       -0.2713
      2 C         144.6089  142.4754  160.3726 C.3     1  UNL1        0.0768
      3 C         144.6250  142.9649  161.7905 C.3     1  UNL1        0.0433
      4 C         144.0400  142.3169  163.0102 C.ar    1  UNL1       -0.0247
      5 C         144.2797  143.1440  164.2384 C.ar    1  UNL1       -0.0045
      6 C         143.7739  142.6736  165.5699 C.ar    1  UNL1        0.0011
      7 C         143.0283  141.3761  165.6732 C.ar    1  UNL1        0.0170
      8 C         142.7886  140.5490  164.4450 C.ar    1  UNL1       -0.0030
      9 C         143.2944  141.0194  163.1135 C.ar    1  UNL1       -0.0246
     10 C         142.9497  140.0495  162.0225 C.3     1  UNL1        0.0433
     11 C         143.2655  140.1375  160.5587 C.3     1  UNL1        0.0768
     12 C         142.5224  140.9057  167.0047 C.ar    1  UNL1        0.0791
     13 C         143.0515  139.7406  167.7873 C.ar    1  UNL1        0.0352
     14 C         142.2547  139.6327  169.0536 C.ar    1  UNL1        0.0804
     15 C         142.4459  138.6064  170.1308 C.3     1  UNL1        0.0540
     16 N         141.2333  140.7311  169.0536 N.ar    1  UNL1       -0.1736
     17 N         141.3987  141.5180  167.7873 N.ar    1  UNL1       -0.2492
     18 C         140.5835  142.7080  167.3759 C.3     1  UNL1        0.1537
     19 C         144.1575  141.0111  158.3466 C.3     1  UNL1        0.0843
     20 C         142.9426  140.9224  157.4714 C.3     1  UNL1        0.0824
     21 S         142.1077  142.1432  157.2212 S.3     1  UNL1       -0.0742
     22 C         141.0632  144.1404  160.3812 C.ar    1  UNL1        0.1862
     23 N         141.9318  145.1418  159.6794 N.ar    1  UNL1       -0.1266
     24 N         142.4288  144.5156  158.4103 N.ar    1  UNL1       -0.1221
     25 C         141.8673  143.1271  158.3276 C.ar    1  UNL1        0.1933
     26 N         141.0233  142.8952  159.5458 N.ar    1  UNL1       -0.2872
     27 C         140.2714  141.6387  159.8713 C.3     1  UNL1        0.1340
     28 C         138.2430  144.9695  165.6118 C.3     1  UNL1        0.0538
     29 C         138.9480  144.7622  164.3042 C.ar    1  UNL1        0.0785
     30 C         138.1541  144.5442  163.0503 C.ar    1  UNL1        0.1136
     31 N         138.8592  144.3369  161.7427 N.ar    1  UNL1       -0.2379
     32 C         140.3581  144.3476  161.6889 C.ar    1  UNL1        0.1362
     33 C         141.1521  144.5657  162.9427 C.ar    1  UNL1        0.1206
     34 N         140.4470  144.7729  164.2503 N.ar    1  UNL1       -0.2449
@<TRIPOS>BOND
     1    28    29    1
     2    29    30   ar
     3    30    31   ar
     4    31    32   ar
     5    32    22    1
     6    22    23   ar
     7    23    24   ar
     8    24    25   ar
     9    25    21    1
    10    21    20    1
    11    20    19    1
    12    19     1    1
    13     1     2    1
    14     2     3    1
    15     3     4    1
    16     4     5   ar
    17     5     6   ar
    18     6     7   ar
    19     7    12    1
    20    12    13   ar
    21    13    14   ar
    22    14    15    1
    23    14    16   ar
    24    16    17   ar
    25    17    18    1
    26     7     8   ar
    27     8     9   ar
    28     9    10    1
    29    10    11    1
    30    25    26   ar
    31    26    27    1
    32    32    33   ar
    33    33    34   ar
    34    34    29   ar
    35    26    22   ar
    36    11     1    1
    37     9     4   ar
    38    17    12   ar
@<TRIPOS>MOLECULE
*****
 34 38 0 0 0
SMALL
GASTEIGER

@<TRIPOS>ATOM
      1 N         140.4560  145.1949  161.9704 N.3     1  UNL1       -0.2713
      2 C         141.8500  144.6563  162.1008 C.3     1  UNL1        0.0768
      3 C         142.4562  143.8973  163.2439 C.3     1  UNL1        0.0433
      4 C         141.8183  143.4896  164.5386 C.ar    1  UNL1       -0.0247
      5 C         142.7806  142.7397  165.4114 C.ar    1  UNL1       -0.0045
      6 C         142.3412  142.2402  166.7558 C.ar    1  UNL1        0.0011
      7 C         140.9395  142.4905  167.2275 C.ar    1  UNL1        0.0170
      8 C         139.9771  143.2404  166.3548 C.ar    1  UNL1       -0.0030
      9 C         140.4166  143.7399  165.0104 C.ar    1  UNL1       -0.0246
     10 C         139.3066  144.4600  164.3037 C.3     1  UNL1        0.0433
     11 C         139.3242  145.1075  162.9507 C.3     1  UNL1        0.0768
     12 C         140.5000  141.9910  168.5719 C.ar    1  UNL1        0.0791
     13 C         140.2091  140.5639  168.9303 C.ar    1  UNL1        0.0352
     14 C         139.8037  140.5218  170.3738 C.ar    1  UNL1        0.0804
     15 C         139.4244  139.2941  171.1477 C.3     1  UNL1        0.0540
     16 N         139.8440  141.9231  170.9076 N.ar    1  UNL1       -0.1736
     17 N         140.2744  142.8311  169.7940 N.ar    1  UNL1       -0.2492
     18 C         140.4486  144.3181  169.8862 C.3     1  UNL1        0.1537
     19 C         140.1542  145.9162  160.6903 C.3     1  UNL1        0.0843
     20 C         140.4581  145.2658  159.3733 C.3     1  UNL1        0.0824
     21 S         139.8529  143.9351  159.0367 S.3     1  UNL1       -0.0742
     22 C         140.1838  140.8832  161.4119 C.ar    1  UNL1        0.1862
     23 N         141.4727  140.7982  160.6495 N.ar    1  UNL1       -0.1266
     24 N         141.5058  141.9311  159.6670 N.ar    1  UNL1       -0.1221
     25 C         140.2371  142.7163  159.8221 C.ar    1  UNL1        0.1933
     26 N         139.4201  142.0687  160.9005 N.ar    1  UNL1       -0.2872
     27 C         138.0755  142.5261  161.3829 C.3     1  UNL1        0.1340
     28 C         138.3962  137.1389  165.7461 C.3     1  UNL1        0.0538
     29 C         138.8431  138.0750  164.6625 C.ar    1  UNL1        0.0785
     30 C         139.0096  137.5727  163.2589 C.ar    1  UNL1        0.1136
     31 N         139.4565  138.5088  162.1755 N.ar    1  UNL1       -0.2379
     32 C         139.7369  139.9471  162.4955 C.ar    1  UNL1        0.1362
     33 C         139.5703  140.4495  163.8990 C.ar    1  UNL1        0.1206
     34 N         139.1234  139.5134  164.9825 N.ar    1  UNL1       -0.2449
@<TRIPOS>BOND
     1    28    29    1
     2    29    30   ar
     3    30    31   ar
     4    31    32   ar
     5    32    22    1
     6    22    23   ar
     7    23    24   ar
     8    24    25   ar
     9    25    21    1
    10    21    20    1
    11    20    19    1
    12    19     1    1
    13     1     2    1
    14     2     3    1
    15     3     4    1
    16     4     5   ar
    17     5     6   ar
    18     6     7   ar
    19     7    12    1
    20    12    13   ar
    21    13    14   ar
    22    14    15    1
    23    14    16   ar
    24    16    17   ar
    25    17    18    1
    26     7     8   ar
    27     8     9   ar
    28     9    10    1
    29    10    11    1
    30    25    26   ar
    31    26    27    1
    32    32    33   ar
    33    33    34   ar
    34    34    29   ar
    35    26    22   ar
    36    11     1    1
    37     9     4   ar
    38    17    12   ar
@<TRIPOS>MOLECULE
*****
 34 38 0 0 0
SMALL
GASTEIGER

@<TRIPOS>ATOM
      1 N         141.1052  144.8106  161.0932 N.3     1  UNL1       -0.2713
      2 C         139.8703  145.3867  161.7203 C.3     1  UNL1        0.0768
      3 C         139.3443  145.1814  163.1101 C.3     1  UNL1        0.0433
      4 C         139.9232  144.3494  164.2157 C.ar    1  UNL1       -0.0247
      5 C         139.0787  144.4187  165.4535 C.ar    1  UNL1       -0.0045
      6 C         139.4820  143.6558  166.6803 C.ar    1  UNL1        0.0011
      7 C         140.7300  142.8235  166.6695 C.ar    1  UNL1        0.0170
      8 C         141.5745  142.7543  165.4318 C.ar    1  UNL1       -0.0030
      9 C         141.1712  143.5172  164.2049 C.ar    1  UNL1       -0.0246
     10 C         142.1484  143.3114  163.0857 C.3     1  UNL1        0.0433
     11 C         142.1189  143.8871  161.7008 C.3     1  UNL1        0.0768
     12 C         141.1334  142.0606  167.8964 C.ar    1  UNL1        0.0791
     13 C         141.6792  140.6638  167.9263 C.ar    1  UNL1        0.0352
     14 C         141.9449  140.3004  169.3571 C.ar    1  UNL1        0.0804
     15 C         142.4955  138.9942  169.8474 C.3     1  UNL1        0.0540
     16 N         141.5633  141.4727  170.2116 N.ar    1  UNL1       -0.1736
     17 N         141.0617  142.5606  169.3089 N.ar    1  UNL1       -0.2492
     18 C         140.5741  143.9112  169.7424 C.3     1  UNL1        0.1537
     19 C         141.3599  145.2111  159.6703 C.3     1  UNL1        0.0843
     20 C         140.3239  144.9437  158.6190 C.3     1  UNL1        0.0824
     21 S         140.1010  143.5453  158.1242 S.3     1  UNL1       -0.0742
     22 C         140.3906  140.6747  160.7205 C.ar    1  UNL1        0.1862
     23 N         141.6512  140.4799  159.9313 N.ar    1  UNL1       -0.1266
     24 N         141.6963  141.5315  158.8626 N.ar    1  UNL1       -0.1221
     25 C         140.4634  142.3762  158.9914 C.ar    1  UNL1        0.1933
     26 N         139.6565  141.8467  160.1396 N.ar    1  UNL1       -0.2872
     27 C         138.3456  142.3931  160.6222 C.3     1  UNL1        0.1340
     28 C         138.5991  137.3496  165.3826 C.3     1  UNL1        0.0538
     29 C         139.0470  138.1809  164.2171 C.ar    1  UNL1        0.0785
     30 C         139.4171  139.6202  164.4206 C.ar    1  UNL1        0.1136
     31 N         139.8650  140.4514  163.2550 N.ar    1  UNL1       -0.2379
     32 C         139.9428  139.8434  161.8861 C.ar    1  UNL1        0.1362
     33 C         139.5727  138.4041  161.6825 C.ar    1  UNL1        0.1206
     34 N         139.1248  137.5729  162.8480 N.ar    1  UNL1       -0.2449
@<TRIPOS>BOND
     1    28    29    1
     2    29    30   ar
     3    30    31   ar
     4    31    32   ar
     5    32    22    1
     6    22    23   ar
     7    23    24   ar
     8    24    25   ar
     9    25    21    1
    10    21    20    1
    11    20    19    1
    12    19     1    1
    13     1     2    1
    14     2     3    1
    15     3     4    1
    16     4     5   ar
    17     5     6   ar
    18     6     7   ar
    19     7    12    1
    20    12    13   ar
    21    13    14   ar
    22    14    15    1
    23    14    16   ar
    24    16    17   ar
    25    17    18    1
    26     7     8   ar
    27     8     9   ar
    28     9    10    1
    29    10    11    1
    30    25    26   ar
    31    26    27    1
    32    32    33   ar
    33    33    34   ar
    34    34    29   ar
    35    26    22   ar
    36    11     1    1
    37     9     4   ar
    38    17    12   ar
@<TRIPOS>MOLECULE
*****
 34 38 0 0 0
SMALL
GASTEIGER

@<TRIPOS>ATOM
      1 N         140.0886  142.0493  168.6585 N.3     1  UNL1       -0.2713
      2 C         139.6224  140.6284  168.7758 C.3     1  UNL1        0.0768
      3 C         139.2569  139.6706  167.6806 C.3     1  UNL1        0.0433
      4 C         139.2676  139.8972  166.1980 C.ar    1  UNL1       -0.0247
      5 C         138.8285  138.6714  165.4531 C.ar    1  UNL1       -0.0045
      6 C         138.7680  138.6859  163.9544 C.ar    1  UNL1        0.0011
      7 C         139.1467  139.9261  163.2005 C.ar    1  UNL1        0.0170
      8 C         139.5857  141.1519  163.9453 C.ar    1  UNL1       -0.0030
      9 C         139.6462  141.1374  165.4440 C.ar    1  UNL1       -0.0246
     10 C         140.1077  142.4575  165.9866 C.3     1  UNL1        0.0433
     11 C         140.3046  142.8632  167.4173 C.3     1  UNL1        0.0768
     12 C         139.0862  139.9406  161.7018 C.ar    1  UNL1        0.0791
     13 C         139.5532  138.8450  160.7899 C.ar    1  UNL1        0.0352
     14 C         139.3038  139.2806  159.3764 C.ar    1  UNL1        0.0804
     15 C         139.6200  138.4901  158.1414 C.3     1  UNL1        0.0540
     16 N         138.6826  140.6454  159.4146 N.ar    1  UNL1       -0.1736
     17 N         138.5482  141.0534  160.8518 N.ar    1  UNL1       -0.2492
     18 C         137.9761  142.3469  161.3513 C.3     1  UNL1        0.1537
     19 C         140.3770  142.7486  169.9538 C.3     1  UNL1        0.0843
     20 C         141.6402  142.4466  170.7041 C.3     1  UNL1        0.0824
     21 S         142.9127  142.1824  169.9549 S.3     1  UNL1       -0.0742
     22 C         143.1994  139.7867  166.9146 C.ar    1  UNL1        0.1862
     23 N         142.9974  138.8101  168.0351 N.ar    1  UNL1       -0.1266
     24 N         142.8654  139.5886  169.3104 N.ar    1  UNL1       -0.1221
     25 C         142.9858  141.0464  168.9781 C.ar    1  UNL1        0.1933
     26 N         143.1922  141.1688  167.4974 N.ar    1  UNL1       -0.2872
     27 C         143.3617  142.4486  166.7337 C.3     1  UNL1        0.1340
     28 C         143.9110  138.4068  161.1190 C.3     1  UNL1        0.0538
     29 C         143.7331  138.7518  162.5679 C.ar    1  UNL1        0.0785
     30 C         142.5509  138.2233  163.3250 C.ar    1  UNL1        0.1136
     31 N         142.3731  138.5683  164.7739 N.ar    1  UNL1       -0.2379
     32 C         143.3773  139.4417  165.4657 C.ar    1  UNL1        0.1362
     33 C         144.5595  139.9702  164.7086 C.ar    1  UNL1        0.1206
     34 N         144.7374  139.6252  163.2597 N.ar    1  UNL1       -0.2449
@<TRIPOS>BOND
     1    28    29    1
     2    29    30   ar
     3    30    31   ar
     4    31    32   ar
     5    32    22    1
     6    22    23   ar
     7    23    24   ar
     8    24    25   ar
     9    25    21    1
    10    21    20    1
    11    20    19    1
    12    19     1    1
    13     1     2    1
    14     2     3    1
    15     3     4    1
    16     4     5   ar
    17     5     6   ar
    18     6     7   ar
    19     7    12    1
    20    12    13   ar
    21    13    14   ar
    22    14    15    1
    23    14    16   ar
    24    16    17   ar
    25    17    18    1
    26     7     8   ar
    27     8     9   ar
    28     9    10    1
    29    10    11    1
    30    25    26   ar
    31    26    27    1
    32    32    33   ar
    33    33    34   ar
    34    34    29   ar
    35    26    22   ar
    36    11     1    1
    37     9     4   ar
    38    17    12   ar
@<TRIPOS>MOLECULE
*****
 34 38 0 0 0
SMALL
GASTEIGER

@<TRIPOS>ATOM
      1 N         141.0070  139.5242  159.2471 N.3     1  UNL1       -0.2713
      2 C         139.9454  138.4999  159.5192 C.3     1  UNL1        0.0768
      3 C         139.3939  138.0529  160.8406 C.3     1  UNL1        0.0433
      4 C         139.7678  138.5197  162.2161 C.ar    1  UNL1       -0.0247
      5 C         138.9702  137.8115  163.2708 C.ar    1  UNL1       -0.0045
      6 C         139.1903  138.1324  164.7195 C.ar    1  UNL1        0.0011
      7 C         140.2080  139.1615  165.1135 C.ar    1  UNL1        0.0170
      8 C         141.0056  139.8697  164.0588 C.ar    1  UNL1       -0.0030
      9 C         140.7855  139.5488  162.6102 C.ar    1  UNL1       -0.0246
     10 C         141.6807  140.3653  161.7259 C.3     1  UNL1        0.0433
     11 C         141.7792  140.3543  160.2291 C.3     1  UNL1        0.0768
     12 C         140.4281  139.4824  166.5622 C.ar    1  UNL1        0.0791
     13 C         139.3762  139.9191  167.5382 C.ar    1  UNL1        0.0352
     14 C         140.0368  140.1295  168.8684 C.ar    1  UNL1        0.0804
     15 C         139.3565  140.5694  170.1308 C.3     1  UNL1        0.0540
     16 N         141.4970  139.8228  168.7144 N.ar    1  UNL1       -0.1736
     17 N         141.7389  139.4229  167.2891 N.ar    1  UNL1       -0.2492
     18 C         143.0596  139.0320  166.6951 C.3     1  UNL1        0.1537
     19 C         141.3404  139.7478  157.8018 C.3     1  UNL1        0.0843
     20 C         140.3172  140.3409  156.8792 C.3     1  UNL1        0.0824
     21 S         140.1528  141.8298  156.7992 S.3     1  UNL1       -0.0742
     22 C         140.2738  143.6951  160.2008 C.ar    1  UNL1        0.1862
     23 N         141.4625  144.2870  159.5032 N.ar    1  UNL1       -0.1266
     24 N         141.5619  143.6603  158.1440 N.ar    1  UNL1       -0.1221
     25 C         140.4346  142.6810  158.0016 C.ar    1  UNL1        0.1933
     26 N         139.6385  142.7026  159.2727 N.ar    1  UNL1       -0.2872
     27 C         138.4209  141.8766  159.5646 C.3     1  UNL1        0.1340
     28 C         138.3907  145.0583  165.7321 C.3     1  UNL1        0.0538
     29 C         138.8615  144.7175  164.3493 C.ar    1  UNL1        0.0785
     30 C         137.8656  144.3753  163.2810 C.ar    1  UNL1        0.1136
     31 N         138.3365  144.0346  161.8982 N.ar    1  UNL1       -0.2379
     32 C         139.8030  144.0359  161.5837 C.ar    1  UNL1        0.1362
     33 C         140.7990  144.3780  162.6519 C.ar    1  UNL1        0.1206
     34 N         140.3281  144.7188  164.0347 N.ar    1  UNL1       -0.2449
@<TRIPOS>BOND
     1    28    29    1
     2    29    30   ar
     3    30    31   ar
     4    31    32   ar
     5    32    22    1
     6    22    23   ar
     7    23    24   ar
     8    24    25   ar
     9    25    21    1
    10    21    20    1
    11    20    19    1
    12    19     1    1
    13     1     2    1
    14     2     3    1
    15     3     4    1
    16     4     5   ar
    17     5     6   ar
    18     6     7   ar
    19     7    12    1
    20    12    13   ar
    21    13    14   ar
    22    14    15    1
    23    14    16   ar
    24    16    17   ar
    25    17    18    1
    26     7     8   ar
    27     8     9   ar
    28     9    10    1
    29    10    11    1
    30    25    26   ar
    31    26    27    1
    32    32    33   ar
    33    33    34   ar
    34    34    29   ar
    35    26    22   ar
    36    11     1    1
    37     9     4   ar
    38    17    12   ar
@<TRIPOS>MOLECULE
*****
 34 38 0 0 0
SMALL
GASTEIGER

@<TRIPOS>ATOM
      1 N         143.5888  141.6353  160.2137 N.3     1  UNL1       -0.2713
      2 C         144.6215  142.5426  160.8143 C.3     1  UNL1        0.0768
      3 C         144.7963  142.9391  162.2504 C.3     1  UNL1        0.0433
      4 C         143.9818  142.5264  163.4404 C.ar    1  UNL1       -0.0247
      5 C         144.4971  143.1541  164.7016 C.ar    1  UNL1       -0.0045
      6 C         143.8218  142.8707  166.0106 C.ar    1  UNL1        0.0011
      7 C         142.6312  141.9595  166.0586 C.ar    1  UNL1        0.0170
      8 C         142.1159  141.3318  164.7974 C.ar    1  UNL1       -0.0030
      9 C         142.7912  141.6152  163.4884 C.ar    1  UNL1       -0.0246
     10 C         142.1211  140.8917  162.3581 C.3     1  UNL1        0.0433
     11 C         142.4762  140.9007  160.9007 C.3     1  UNL1        0.0768
     12 C         141.9559  141.6761  167.3676 C.ar    1  UNL1        0.0791
     13 C         141.0758  142.6225  168.1288 C.ar    1  UNL1        0.0352
     14 C         140.6181  141.9278  169.3769 C.ar    1  UNL1        0.0804
     15 C         139.7207  142.5073  170.4300 C.3     1  UNL1        0.0540
     16 N         141.2154  140.5519  169.3872 N.ar    1  UNL1       -0.1736
     17 N         142.0423  140.3963  168.1453 N.ar    1  UNL1       -0.2492
     18 C         142.8190  139.1753  167.7506 C.3     1  UNL1        0.1537
     19 C         143.6813  141.4366  158.7298 C.3     1  UNL1        0.0843
     20 C         142.5496  140.7897  157.9878 C.3     1  UNL1        0.0824
     21 S         142.7314  140.3718  156.5586 S.3     1  UNL1       -0.0742
     22 C         143.4945  136.6201  155.9200 C.ar    1  UNL1        0.1862
     23 N         144.8122  137.2471  155.5729 N.ar    1  UNL1       -0.1266
     24 N         144.6869  138.7288  155.7699 N.ar    1  UNL1       -0.1221
     25 C         143.2915  139.0176  156.2387 C.ar    1  UNL1        0.1933
     26 N         142.5546  137.7144  156.3315 N.ar    1  UNL1       -0.2872
     27 C         141.1283  137.5365  156.7604 C.3     1  UNL1        0.1340
     28 C         142.2087  130.7636  155.7008 C.3     1  UNL1        0.0538
     29 C         142.5302  132.2278  155.7555 C.ar    1  UNL1        0.0785
     30 C         142.5392  133.0414  154.4954 C.ar    1  UNL1        0.1136
     31 N         142.8607  134.5055  154.5503 N.ar    1  UNL1       -0.2379
     32 C         143.1731  135.1560  155.8652 C.ar    1  UNL1        0.1362
     33 C         143.1641  134.3425  157.1254 C.ar    1  UNL1        0.1206
     34 N         142.8426  132.8783  157.0705 N.ar    1  UNL1       -0.2449
@<TRIPOS>BOND
     1    28    29    1
     2    29    30   ar
     3    30    31   ar
     4    31    32   ar
     5    32    22    1
     6    22    23   ar
     7    23    24   ar
     8    24    25   ar
     9    25    21    1
    10    21    20    1
    11    20    19    1
    12    19     1    1
    13     1     2    1
    14     2     3    1
    15     3     4    1
    16     4     5   ar
    17     5     6   ar
    18     6     7   ar
    19     7    12    1
    20    12    13   ar
    21    13    14   ar
    22    14    15    1
    23    14    16   ar
    24    16    17   ar
    25    17    18    1
    26     7     8   ar
    27     8     9   ar
    28     9    10    1
    29    10    11    1
    30    25    26   ar
    31    26    27    1
    32    32    33   ar
    33    33    34   ar
    34    34    29   ar
    35    26    22   ar
    36    11     1    1
    37     9     4   ar
    38    17    12   ar
@<TRIPOS>MOLECULE
*****
 34 38 0 0 0
SMALL
GASTEIGER

@<TRIPOS>ATOM
      1 N         141.6957  138.3676  159.0218 N.3     1  UNL1       -0.2713
      2 C         143.1244  138.8148  159.1162 C.3     1  UNL1        0.0768
      3 C         143.8790  139.2859  160.3240 C.3     1  UNL1        0.0433
      4 C         143.3914  139.4259  161.7355 C.ar    1  UNL1       -0.0247
      5 C         144.4738  139.9339  162.6413 C.ar    1  UNL1       -0.0045
      6 C         144.1934  140.1456  164.0996 C.ar    1  UNL1        0.0011
      7 C         142.8307  139.8493  164.6522 C.ar    1  UNL1        0.0170
      8 C         141.7484  139.3413  163.7463 C.ar    1  UNL1       -0.0030
      9 C         142.0287  139.1296  162.2880 C.ar    1  UNL1       -0.0246
     10 C         140.8171  138.6200  161.5654 C.3     1  UNL1        0.0433
     11 C         140.6689  138.2809  160.1117 C.3     1  UNL1        0.0768
     12 C         142.5504  140.0609  166.1104 C.ar    1  UNL1        0.0791
     13 C         142.8276  139.0821  167.2127 C.ar    1  UNL1        0.0352
     14 C         142.3921  139.7048  168.5060 C.ar    1  UNL1        0.0804
     15 C         142.4865  139.0744  169.8638 C.3     1  UNL1        0.0540
     16 N         141.8458  141.0685  168.2030 N.ar    1  UNL1       -0.1736
     17 N         141.9436  141.2887  166.7225 N.ar    1  UNL1       -0.2492
     18 C         141.5106  142.5202  165.9837 C.3     1  UNL1        0.1537
     19 C         141.2327  137.9521  157.6568 C.3     1  UNL1        0.0843
     20 C         141.3782  138.8922  156.4971 C.3     1  UNL1        0.0824
     21 S         140.4064  140.0211  156.3203 S.3     1  UNL1       -0.0742
     22 C         138.4348  141.2404  159.4334 C.ar    1  UNL1        0.1862
     23 N         137.3884  140.4312  158.7262 N.ar    1  UNL1       -0.1266
     24 N         137.9995  139.8759  157.4740 N.ar    1  UNL1       -0.1221
     25 C         139.4237  140.3420  157.4072 C.ar    1  UNL1        0.1933
     26 N         139.6927  141.1853  158.6181 N.ar    1  UNL1       -0.2872
     27 C         140.9916  141.8558  158.9548 C.3     1  UNL1        0.1340
     28 C         137.7152  144.1815  164.6134 C.3     1  UNL1        0.0538
     29 C         137.8951  143.4462  163.3183 C.ar    1  UNL1        0.0785
     30 C         137.4138  142.0317  163.1859 C.ar    1  UNL1        0.1136
     31 N         137.5938  141.2965  161.8909 N.ar    1  UNL1       -0.2379
     32 C         138.2549  141.9757  160.7284 C.ar    1  UNL1        0.1362
     33 C         138.7362  143.3902  160.8608 C.ar    1  UNL1        0.1206
     34 N         138.5562  144.1254  162.1558 N.ar    1  UNL1       -0.2449
@<TRIPOS>BOND
     1    28    29    1
     2    29    30   ar
     3    30    31   ar
     4    31    32   ar
     5    32    22    1
     6    22    23   ar
     7    23    24   ar
     8    24    25   ar
     9    25    21    1
    10    21    20    1
    11    20    19    1
    12    19     1    1
    13     1     2    1
    14     2     3    1
    15     3     4    1
    16     4     5   ar
    17     5     6   ar
    18     6     7   ar
    19     7    12    1
    20    12    13   ar
    21    13    14   ar
    22    14    15    1
    23    14    16   ar
    24    16    17   ar
    25    17    18    1
    26     7     8   ar
    27     8     9   ar
    28     9    10    1
    29    10    11    1
    30    25    26   ar
    31    26    27    1
    32    32    33   ar
    33    33    34   ar
    34    34    29   ar
    35    26    22   ar
    36    11     1    1
    37     9     4   ar
    38    17    12   ar
