@<TRIPOS>MOLECULE
*****
 30 33 0 0 0
SMALL
GASTEIGER

@<TRIPOS>ATOM
      1 N         139.7541  146.0581  159.7078 N.pl3   1  UNL1       -0.3274
      2 C         140.3152  145.3301  160.8932 C.ar    1  UNL1        0.2148
      3 N         141.7979  145.1490  161.0292 N.ar    1  UNL1       -0.1987
      4 C         142.3590  144.4210  162.2147 C.ar    1  UNL1        0.1388
      5 C         141.4373  143.8741  163.2641 C.ar    1  UNL1        0.0786
      6 S         141.6975  143.1181  164.5333 S.2     1  UNL1       -0.0826
      7 C         140.3754  142.8320  165.1816 C.ar    1  UNL1        0.0311
      8 C         139.2982  143.4111  164.3132 C.ar    1  UNL1        0.0263
      9 C         139.9545  144.0552  163.1281 C.ar    1  UNL1        0.0933
     10 N         139.3934  144.7832  161.9426 N.ar    1  UNL1       -0.2134
     11 H         140.3590  146.4171  159.0190 H       1  UNL1        0.1452
     12 H         138.7809  146.1769  159.6185 H       1  UNL1        0.1452
     13 C         140.1672  142.0959  166.4719 C.ar    1  UNL1        0.0060
     14 C         140.5606  142.7338  167.7712 C.ar    1  UNL1        0.0004
     15 C         140.3523  141.9977  169.0615 C.ar    1  UNL1        0.0039
     16 C         139.7506  140.6237  169.0525 C.ar    1  UNL1        0.0714
     17 C         139.3571  139.9858  167.7531 C.ar    1  UNL1        0.0039
     18 C         139.5654  140.7220  166.4629 C.ar    1  UNL1        0.0004
     19 C         139.5423  139.8877  170.3428 C.3     1  UNL1        0.4186
     20 F         139.3340  139.1516  171.6330 F       1  UNL1       -0.1659
     21 F         138.0575  140.0310  170.1848 F       1  UNL1       -0.1659
     22 F         141.0271  139.7444  170.5006 F       1  UNL1       -0.1659
     23 N         143.8419  144.2399  162.3507 N.pl3   1  UNL1       -0.3178
     24 H         144.4408  145.0187  162.2868 H       1  UNL1        0.1482
     25 C         144.4122  142.8724  162.5839 C.3     1  UNL1        0.0874
     26 C         145.1582  142.4248  163.8058 C.3     1  UNL1        0.0380
     27 C         145.5437  140.9880  163.6132 C.3     1  UNL1        0.0704
     28 N         145.0359  140.5476  162.2723 N.3     1  UNL1       -0.2960
     29 C         144.3366  141.7122  161.6361 C.3     1  UNL1        0.0884
     30 H         144.3831  139.7724  162.3869 H       1  UNL1        0.1233
@<TRIPOS>BOND
     1     1     2    1
     2     2     3   ar
     3     3     4   ar
     4     4    23    1
     5    23    25    1
     6    25    26    1
     7    26    27    1
     8    27    28    1
     9    28    29    1
    10     4     5   ar
    11     5     6   ar
    12     6     7   ar
    13     7    13    1
    14    13    14   ar
    15    14    15   ar
    16    15    16   ar
    17    16    19    1
    18    19    20    1
    19    19    21    1
    20    19    22    1
    21    16    17   ar
    22    17    18   ar
    23     7     8   ar
    24     8     9   ar
    25     9    10   ar
    26    10     2   ar
    27    29    25    1
    28     9     5   ar
    29    18    13   ar
    30     1    11    1
    31     1    12    1
    32    23    24    1
    33    28    30    1
@<TRIPOS>MOLECULE
*****
 30 33 0 0 0
SMALL
GASTEIGER

@<TRIPOS>ATOM
      1 N         137.3169  140.5173  157.5318 N.pl3   1  UNL1       -0.3274
      2 C         137.8298  140.9995  158.8564 C.ar    1  UNL1        0.2148
      3 N         138.4687  142.3521  158.9660 N.ar    1  UNL1       -0.1987
      4 C         138.9816  142.8343  160.2906 C.ar    1  UNL1        0.1388
      5 C         138.8557  141.9637  161.5055 C.ar    1  UNL1        0.0786
      6 S         139.2656  142.1684  162.9338 S.2     1  UNL1       -0.0826
      7 C         138.8800  140.9422  163.7070 C.ar    1  UNL1        0.0311
      8 C         138.2318  139.9796  162.7565 C.ar    1  UNL1        0.0263
      9 C         138.2168  140.6109  161.3959 C.ar    1  UNL1        0.0933
     10 N         137.7038  140.1289  160.0714 N.ar    1  UNL1       -0.2134
     11 H         137.3995  141.0887  156.7343 H       1  UNL1        0.1452
     12 H         136.8975  139.6295  157.4599 H       1  UNL1        0.1452
     13 C         139.1034  140.7178  165.1732 C.ar    1  UNL1        0.0060
     14 C         138.4095  139.5871  165.8732 C.ar    1  UNL1        0.0004
     15 C         138.6330  139.3628  167.3394 C.ar    1  UNL1        0.0039
     16 C         139.5502  140.2692  168.1056 C.ar    1  UNL1        0.0714
     17 C         140.2441  141.4000  167.4056 C.ar    1  UNL1        0.0039
     18 C         140.0206  141.6242  165.9394 C.ar    1  UNL1        0.0004
     19 C         139.7736  140.0449  169.5719 C.3     1  UNL1        0.4186
     20 F         139.9970  139.8206  171.0380 F       1  UNL1       -0.1659
     21 F         141.1116  139.4353  169.2747 F       1  UNL1       -0.1659
     22 F         138.4356  140.6545  169.8689 F       1  UNL1       -0.1659
     23 N         139.6205  144.1870  160.4001 N.pl3   1  UNL1       -0.3178
     24 H         139.3807  144.7859  161.1438 H       1  UNL1        0.1482
     25 C         140.6248  144.6272  159.3766 C.3     1  UNL1        0.0874
     26 C         140.4069  145.6675  158.3181 C.3     1  UNL1        0.0380
     27 C         141.6707  145.7876  157.5192 C.3     1  UNL1        0.0704
     28 N         142.6697  144.8216  158.0838 N.3     1  UNL1       -0.2960
     29 C         142.0232  144.1045  159.2318 C.3     1  UNL1        0.0884
     30 H         143.4931  145.3269  158.4109 H       1  UNL1        0.1233
@<TRIPOS>BOND
     1     1     2    1
     2     2     3   ar
     3     3     4   ar
     4     4    23    1
     5    23    25    1
     6    25    26    1
     7    26    27    1
     8    27    28    1
     9    28    29    1
    10     4     5   ar
    11     5     6   ar
    12     6     7   ar
    13     7    13    1
    14    13    14   ar
    15    14    15   ar
    16    15    16   ar
    17    16    19    1
    18    19    20    1
    19    19    21    1
    20    19    22    1
    21    16    17   ar
    22    17    18   ar
    23     7     8   ar
    24     8     9   ar
    25     9    10   ar
    26    10     2   ar
    27    29    25    1
    28     9     5   ar
    29    18    13   ar
    30     1    11    1
    31     1    12    1
    32    23    24    1
    33    28    30    1
@<TRIPOS>MOLECULE
*****
 30 33 0 0 0
SMALL
GASTEIGER

@<TRIPOS>ATOM
      1 N         144.8619  140.4505  157.4737 N.pl3   1  UNL1       -0.3274
      2 C         144.1377  140.6967  158.7641 C.ar    1  UNL1        0.2148
      3 N         144.2938  142.0093  159.4731 N.ar    1  UNL1       -0.1987
      4 C         143.5696  142.2555  160.7635 C.ar    1  UNL1        0.1388
      5 C         142.6894  141.1891  161.3448 C.ar    1  UNL1        0.0786
      6 S         141.8567  141.1444  162.5916 S.2     1  UNL1       -0.0826
      7 C         141.1860  139.8041  162.6531 C.ar    1  UNL1        0.0311
      8 C         141.6042  139.0205  161.4444 C.ar    1  UNL1        0.0263
      9 C         142.5334  139.8765  160.6357 C.ar    1  UNL1        0.0933
     10 N         143.2575  139.6303  159.3454 N.ar    1  UNL1       -0.2134
     11 H         145.4396  141.1504  157.0921 H       1  UNL1        0.1452
     12 H         144.7594  139.5889  157.0084 H       1  UNL1        0.1452
     13 C         140.2597  139.3305  163.7337 C.ar    1  UNL1        0.0060
     14 C         139.5971  140.3235  164.6420 C.ar    1  UNL1        0.0004
     15 C         138.6708  139.8498  165.7226 C.ar    1  UNL1        0.0039
     16 C         138.4071  138.3833  165.8949 C.ar    1  UNL1        0.0714
     17 C         139.0697  137.3903  164.9867 C.ar    1  UNL1        0.0039
     18 C         139.9960  137.8640  163.9060 C.ar    1  UNL1        0.0004
     19 C         137.4808  137.9097  166.9755 C.3     1  UNL1        0.4186
     20 F         136.5545  137.4361  168.0561 F       1  UNL1       -0.1659
     21 F         137.3547  139.3154  167.4836 F       1  UNL1       -0.1659
     22 F         137.6069  136.5040  166.4675 F       1  UNL1       -0.1659
     23 N         143.7258  143.5682  161.4724 N.pl3   1  UNL1       -0.3178
     24 H         144.6191  143.8741  161.7509 H       1  UNL1        0.1482
     25 C         142.5207  144.4148  161.7571 C.3     1  UNL1        0.0874
     26 C         141.4205  144.7363  160.7896 C.3     1  UNL1        0.0380
     27 C         140.4242  145.6087  161.4940 C.3     1  UNL1        0.0704
     28 N         140.9085  145.8264  162.8968 N.3     1  UNL1       -0.2960
     29 C         142.2043  145.0885  163.0594 C.3     1  UNL1        0.0884
     30 H         140.2209  145.4687  163.5598 H       1  UNL1        0.1233
@<TRIPOS>BOND
     1     1     2    1
     2     2     3   ar
     3     3     4   ar
     4     4    23    1
     5    23    25    1
     6    25    26    1
     7    26    27    1
     8    27    28    1
     9    28    29    1
    10     4     5   ar
    11     5     6   ar
    12     6     7   ar
    13     7    13    1
    14    13    14   ar
    15    14    15   ar
    16    15    16   ar
    17    16    19    1
    18    19    20    1
    19    19    21    1
    20    19    22    1
    21    16    17   ar
    22    17    18   ar
    23     7     8   ar
    24     8     9   ar
    25     9    10   ar
    26    10     2   ar
    27    29    25    1
    28     9     5   ar
    29    18    13   ar
    30     1    11    1
    31     1    12    1
    32    23    24    1
    33    28    30    1
@<TRIPOS>MOLECULE
*****
 30 33 0 0 0
SMALL
GASTEIGER

@<TRIPOS>ATOM
      1 N         142.9218  137.3081  158.6980 N.pl3   1  UNL1       -0.3274
      2 C         143.0116  138.0940  159.9725 C.ar    1  UNL1        0.2148
      3 N         143.8473  139.3383  160.0291 N.ar    1  UNL1       -0.1987
      4 C         143.9371  140.1242  161.3036 C.ar    1  UNL1        0.1388
      5 C         143.1911  139.6658  162.5215 C.ar    1  UNL1        0.0786
      6 S         143.0890  140.2302  163.9075 S.2     1  UNL1       -0.0826
      7 C         142.1902  139.3346  164.7075 C.ar    1  UNL1        0.0311
      8 C         141.7367  138.2168  163.8160 C.ar    1  UNL1        0.0263
      9 C         142.3554  138.4215  162.4649 C.ar    1  UNL1        0.0933
     10 N         142.2656  137.6356  161.1904 N.ar    1  UNL1       -0.2134
     11 H         143.4114  137.6089  157.8986 H       1  UNL1        0.1452
     12 H         142.3733  136.4914  158.6609 H       1  UNL1        0.1452
     13 C         141.8113  139.5237  166.1465 C.ar    1  UNL1        0.0060
     14 C         140.4083  139.9125  166.5079 C.ar    1  UNL1        0.0004
     15 C         140.0295  140.1015  167.9469 C.ar    1  UNL1        0.0039
     16 C         141.0536  139.9018  169.0246 C.ar    1  UNL1        0.0714
     17 C         142.4565  139.5131  168.6633 C.ar    1  UNL1        0.0039
     18 C         142.8354  139.3240  167.2242 C.ar    1  UNL1        0.0004
     19 C         140.6747  140.0909  170.4636 C.3     1  UNL1        0.4186
     20 F         140.2958  140.2799  171.9025 F       1  UNL1       -0.1659
     21 F         139.2259  140.1296  170.0770 F       1  UNL1       -0.1659
     22 F         142.1235  140.0521  170.8501 F       1  UNL1       -0.1659
     23 N         144.7729  141.3686  161.3601 N.pl3   1  UNL1       -0.3178
     24 H         145.7367  141.3235  161.1646 H       1  UNL1        0.1482
     25 C         144.1402  142.6816  161.7144 C.3     1  UNL1        0.0874
     26 C         144.5141  143.5560  162.8745 C.3     1  UNL1        0.0380
     27 C         143.6274  144.7655  162.8479 C.3     1  UNL1        0.0704
     28 N         142.7055  144.6387  161.6715 N.3     1  UNL1       -0.2960
     29 C         143.0224  143.3508  160.9709 C.3     1  UNL1        0.0884
     30 H         142.8469  145.4230  161.0348 H       1  UNL1        0.1233
@<TRIPOS>BOND
     1     1     2    1
     2     2     3   ar
     3     3     4   ar
     4     4    23    1
     5    23    25    1
     6    25    26    1
     7    26    27    1
     8    27    28    1
     9    28    29    1
    10     4     5   ar
    11     5     6   ar
    12     6     7   ar
    13     7    13    1
    14    13    14   ar
    15    14    15   ar
    16    15    16   ar
    17    16    19    1
    18    19    20    1
    19    19    21    1
    20    19    22    1
    21    16    17   ar
    22    17    18   ar
    23     7     8   ar
    24     8     9   ar
    25     9    10   ar
    26    10     2   ar
    27    29    25    1
    28     9     5   ar
    29    18    13   ar
    30     1    11    1
    31     1    12    1
    32    23    24    1
    33    28    30    1
@<TRIPOS>MOLECULE
*****
 30 33 0 0 0
SMALL
GASTEIGER

@<TRIPOS>ATOM
      1 N         144.6578  142.7840  158.0147 N.pl3   1  UNL1       -0.3274
      2 C         144.0157  142.9058  159.3649 C.ar    1  UNL1        0.2148
      3 N         142.8902  143.8746  159.5756 N.ar    1  UNL1       -0.1987
      4 C         142.2481  143.9964  160.9258 C.ar    1  UNL1        0.1388
      5 C         142.7317  143.1493  162.0653 C.ar    1  UNL1        0.0786
      6 S         142.2968  143.0504  163.4975 S.2     1  UNL1       -0.0826
      7 C         143.1536  142.0204  164.1719 C.ar    1  UNL1        0.0311
      8 C         144.1180  141.4827  163.1567 C.ar    1  UNL1        0.0263
      9 C         143.8572  142.1804  161.8546 C.ar    1  UNL1        0.0933
     10 N         144.4993  142.0586  160.5045 N.ar    1  UNL1       -0.2134
     11 H         144.3404  143.3399  157.2668 H       1  UNL1        0.1452
     12 H         145.3965  142.1480  157.8765 H       1  UNL1        0.1452
     13 C         143.0621  141.6016  165.6094 C.ar    1  UNL1        0.0060
     14 C         142.6995  140.1883  165.9572 C.ar    1  UNL1        0.0004
     15 C         142.6080  139.7696  167.3947 C.ar    1  UNL1        0.0039
     16 C         142.8792  140.7641  168.4843 C.ar    1  UNL1        0.0714
     17 C         143.2419  142.1774  168.1365 C.ar    1  UNL1        0.0039
     18 C         143.3333  142.5961  166.6990 C.ar    1  UNL1        0.0004
     19 C         142.7877  140.3453  169.9218 C.3     1  UNL1        0.4186
     20 F         142.6962  139.9265  171.3591 F       1  UNL1       -0.1659
     21 F         143.6911  141.4783  170.3094 F       1  UNL1       -0.1659
     22 F         141.8843  139.2123  169.5341 F       1  UNL1       -0.1659
     23 N         141.1225  144.9653  161.1363 N.pl3   1  UNL1       -0.3178
     24 H         141.2575  145.9236  160.9555 H       1  UNL1        0.1482
     25 C         139.7912  144.4741  161.6224 C.3     1  UNL1        0.0874
     26 C         139.0400  144.9947  162.8118 C.3     1  UNL1        0.0380
     27 C         137.7618  144.2184  162.9288 C.3     1  UNL1        0.0704
     28 N         137.7230  143.2182  161.8117 N.3     1  UNL1       -0.2960
     29 C         138.9772  143.3762  161.0043 C.3     1  UNL1        0.0884
     30 H         136.9081  143.3888  161.2224 H       1  UNL1        0.1233
@<TRIPOS>BOND
     1     1     2    1
     2     2     3   ar
     3     3     4   ar
     4     4    23    1
     5    23    25    1
     6    25    26    1
     7    26    27    1
     8    27    28    1
     9    28    29    1
    10     4     5   ar
    11     5     6   ar
    12     6     7   ar
    13     7    13    1
    14    13    14   ar
    15    14    15   ar
    16    15    16   ar
    17    16    19    1
    18    19    20    1
    19    19    21    1
    20    19    22    1
    21    16    17   ar
    22    17    18   ar
    23     7     8   ar
    24     8     9   ar
    25     9    10   ar
    26    10     2   ar
    27    29    25    1
    28     9     5   ar
    29    18    13   ar
    30     1    11    1
    31     1    12    1
    32    23    24    1
    33    28    30    1
@<TRIPOS>MOLECULE
*****
 30 33 0 0 0
SMALL
GASTEIGER

@<TRIPOS>ATOM
      1 N         144.0570  139.8829  158.3206 N.pl3   1  UNL1       -0.3274
      2 C         143.6290  140.4643  159.6355 C.ar    1  UNL1        0.2148
      3 N         143.5764  141.9523  159.8161 N.ar    1  UNL1       -0.1987
      4 C         143.1484  142.5337  161.1311 C.ar    1  UNL1        0.1388
      5 C         142.7729  141.6268  162.2653 C.ar    1  UNL1        0.0786
      6 S         142.3154  141.9079  163.6659 S.2     1  UNL1       -0.0826
      7 C         142.0852  140.5934  164.3509 C.ar    1  UNL1        0.0311
      8 C         142.4004  139.5000  163.3736 C.ar    1  UNL1        0.0263
      9 C         142.8254  140.1386  162.0846 C.ar    1  UNL1        0.0933
     10 N         143.2535  139.5574  160.7698 N.ar    1  UNL1       -0.2134
     11 H         144.3035  140.4781  157.5762 H       1  UNL1        0.1452
     12 H         144.0915  138.9062  158.2021 H       1  UNL1        0.1452
     13 C         141.6213  140.4054  165.7649 C.ar    1  UNL1        0.0060
     14 C         140.1816  140.6339  166.1185 C.ar    1  UNL1        0.0004
     15 C         139.7177  140.4458  167.5326 C.ar    1  UNL1        0.0039
     16 C         140.6934  140.0293  168.5929 C.ar    1  UNL1        0.0714
     17 C         142.1331  139.8009  168.2393 C.ar    1  UNL1        0.0039
     18 C         142.5970  139.9889  166.8253 C.ar    1  UNL1        0.0004
     19 C         140.2295  139.8413  170.0070 C.3     1  UNL1        0.4186
     20 F         139.7656  139.6533  171.4209 F       1  UNL1       -0.1659
     21 F         138.9919  140.6337  169.7063 F       1  UNL1       -0.1659
     22 F         141.4672  139.0489  170.3076 F       1  UNL1       -0.1659
     23 N         143.0959  144.0219  161.3116 N.pl3   1  UNL1       -0.3178
     24 H         143.9271  144.5304  161.4519 H       1  UNL1        0.1482
     25 C         141.7768  144.7353  161.2784 C.3     1  UNL1        0.0874
     26 C         141.0267  145.2576  162.4678 C.3     1  UNL1        0.0380
     27 C         139.7626  145.8968  161.9744 C.3     1  UNL1        0.0704
     28 N         139.7315  145.7696  160.4801 N.3     1  UNL1       -0.2960
     29 C         140.9764  145.0518  160.0500 C.3     1  UNL1        0.0884
     30 H         139.7015  146.6960  160.0544 H       1  UNL1        0.1233
@<TRIPOS>BOND
     1     1     2    1
     2     2     3   ar
     3     3     4   ar
     4     4    23    1
     5    23    25    1
     6    25    26    1
     7    26    27    1
     8    27    28    1
     9    28    29    1
    10     4     5   ar
    11     5     6   ar
    12     6     7   ar
    13     7    13    1
    14    13    14   ar
    15    14    15   ar
    16    15    16   ar
    17    16    19    1
    18    19    20    1
    19    19    21    1
    20    19    22    1
    21    16    17   ar
    22    17    18   ar
    23     7     8   ar
    24     8     9   ar
    25     9    10   ar
    26    10     2   ar
    27    29    25    1
    28     9     5   ar
    29    18    13   ar
    30     1    11    1
    31     1    12    1
    32    23    24    1
    33    28    30    1
@<TRIPOS>MOLECULE
*****
 30 33 0 0 0
SMALL
GASTEIGER

@<TRIPOS>ATOM
      1 N         141.7671  145.8111  159.0083 N.pl3   1  UNL1       -0.3274
      2 C         141.2652  145.0606  160.2063 C.ar    1  UNL1        0.2148
      3 N         139.9248  144.3889  160.1630 N.ar    1  UNL1       -0.1987
      4 C         139.4229  143.6384  161.3609 C.ar    1  UNL1        0.1388
      5 C         140.2615  143.5598  162.6021 C.ar    1  UNL1        0.0786
      6 S         140.0322  142.8970  163.9280 S.2     1  UNL1       -0.0826
      7 C         141.2309  143.1592  164.7907 C.ar    1  UNL1        0.0311
      8 C         142.2011  143.9840  163.9980 C.ar    1  UNL1        0.0263
      9 C         141.6020  144.2316  162.6453 C.ar    1  UNL1        0.0933
     10 N         142.1038  144.9820  161.4474 N.ar    1  UNL1       -0.2134
     11 H         141.2167  145.8627  158.1937 H       1  UNL1        0.1452
     12 H         142.6469  146.2520  159.0367 H       1  UNL1        0.1452
     13 C         141.4254  142.6805  166.1989 C.ar    1  UNL1        0.0060
     14 C         142.7649  142.1687  166.6389 C.ar    1  UNL1        0.0004
     15 C         142.9593  141.6900  168.0472 C.ar    1  UNL1        0.0039
     16 C         141.8142  141.7232  169.0155 C.ar    1  UNL1        0.0714
     17 C         140.4746  142.2351  168.5755 C.ar    1  UNL1        0.0039
     18 C         140.2803  142.7137  167.1672 C.ar    1  UNL1        0.0004
     19 C         142.0087  141.2446  170.4237 C.3     1  UNL1        0.4186
     20 F         142.2031  140.7660  171.8318 F       1  UNL1       -0.1659
     21 F         142.4882  142.6092  170.8213 F       1  UNL1       -0.1659
     22 F         141.5291  139.8800  170.0260 F       1  UNL1       -0.1659
     23 N         138.0824  142.9666  161.3176 N.pl3   1  UNL1       -0.3178
     24 H         137.2642  143.4896  161.4802 H       1  UNL1        0.1482
     25 C         137.9884  141.4982  161.0266 C.3     1  UNL1        0.0874
     26 C         137.6684  140.4211  162.0203 C.3     1  UNL1        0.0380
     27 C         137.6803  139.1062  161.2985 C.3     1  UNL1        0.0704
     28 N         138.0076  139.3706  159.8588 N.3     1  UNL1       -0.2960
     29 C         138.1981  140.8490  159.6907 C.3     1  UNL1        0.0884
     30 H         137.2422  139.0505  159.2654 H       1  UNL1        0.1233
@<TRIPOS>BOND
     1     1     2    1
     2     2     3   ar
     3     3     4   ar
     4     4    23    1
     5    23    25    1
     6    25    26    1
     7    26    27    1
     8    27    28    1
     9    28    29    1
    10     4     5   ar
    11     5     6   ar
    12     6     7   ar
    13     7    13    1
    14    13    14   ar
    15    14    15   ar
    16    15    16   ar
    17    16    19    1
    18    19    20    1
    19    19    21    1
    20    19    22    1
    21    16    17   ar
    22    17    18   ar
    23     7     8   ar
    24     8     9   ar
    25     9    10   ar
    26    10     2   ar
    27    29    25    1
    28     9     5   ar
    29    18    13   ar
    30     1    11    1
    31     1    12    1
    32    23    24    1
    33    28    30    1
@<TRIPOS>MOLECULE
*****
 30 33 0 0 0
SMALL
GASTEIGER

@<TRIPOS>ATOM
      1 N         137.5261  140.1818  158.3117 N.pl3   1  UNL1       -0.3274
      2 C         138.0019  140.7878  159.5988 C.ar    1  UNL1        0.2148
      3 N         138.4802  142.2091  159.6269 N.ar    1  UNL1       -0.1987
      4 C         138.9560  142.8151  160.9140 C.ar    1  UNL1        0.1388
      5 C         138.9535  141.9996  162.1729 C.ar    1  UNL1        0.0786
      6 S         139.3612  142.3237  163.5796 S.2     1  UNL1       -0.0826
      7 C         139.1348  141.1026  164.4208 C.ar    1  UNL1        0.0311
      8 C         138.5872  140.0238  163.5341 C.ar    1  UNL1        0.0263
      9 C         138.4752  140.5781  162.1448 C.ar    1  UNL1        0.0933
     10 N         137.9994  139.9722  160.8577 N.ar    1  UNL1       -0.2134
     11 H         137.5277  140.7170  157.4854 H       1  UNL1        0.1452
     12 H         137.2121  139.2489  158.2933 H       1  UNL1        0.1452
     13 C         139.4081  140.9816  165.8907 C.ar    1  UNL1        0.0060
     14 C         140.2032  142.0404  166.5954 C.ar    1  UNL1        0.0004
     15 C         140.4764  141.9193  168.0654 C.ar    1  UNL1        0.0039
     16 C         139.9545  140.7394  168.8306 C.ar    1  UNL1        0.0714
     17 C         139.1593  139.6806  168.1259 C.ar    1  UNL1        0.0039
     18 C         138.8861  139.8018  166.6559 C.ar    1  UNL1        0.0004
     19 C         140.2278  140.6184  170.3006 C.3     1  UNL1        0.4186
     20 F         140.5010  140.4973  171.7704 F       1  UNL1       -0.1659
     21 F         139.5268  141.9231  170.5383 F       1  UNL1       -0.1659
     22 F         140.9287  139.3137  170.0627 F       1  UNL1       -0.1659
     23 N         139.4343  144.2366  160.9420 N.pl3   1  UNL1       -0.3178
     24 H         138.8846  144.9489  160.5424 H       1  UNL1        0.1482
     25 C         140.7501  144.5727  161.5790 C.3     1  UNL1        0.0874
     26 C         140.9418  145.3262  162.8617 C.3     1  UNL1        0.0380
     27 C         142.4153  145.4335  163.1204 C.3     1  UNL1        0.0704
     28 N         143.1344  144.7464  161.9976 N.3     1  UNL1       -0.2960
     29 C         142.1052  144.2143  161.0449 C.3     1  UNL1        0.0884
     30 H         143.6960  143.9782  162.3649 H       1  UNL1        0.1233
@<TRIPOS>BOND
     1     1     2    1
     2     2     3   ar
     3     3     4   ar
     4     4    23    1
     5    23    25    1
     6    25    26    1
     7    26    27    1
     8    27    28    1
     9    28    29    1
    10     4     5   ar
    11     5     6   ar
    12     6     7   ar
    13     7    13    1
    14    13    14   ar
    15    14    15   ar
    16    15    16   ar
    17    16    19    1
    18    19    20    1
    19    19    21    1
    20    19    22    1
    21    16    17   ar
    22    17    18   ar
    23     7     8   ar
    24     8     9   ar
    25     9    10   ar
    26    10     2   ar
    27    29    25    1
    28     9     5   ar
    29    18    13   ar
    30     1    11    1
    31     1    12    1
    32    23    24    1
    33    28    30    1
@<TRIPOS>MOLECULE
*****
 30 33 0 0 0
SMALL
GASTEIGER

@<TRIPOS>ATOM
      1 N         141.8510  145.5525  159.3158 N.pl3   1  UNL1       -0.3274
      2 C         141.5514  144.4188  160.2513 C.ar    1  UNL1        0.2148
      3 N         141.3469  143.0346  159.7111 N.ar    1  UNL1       -0.1987
      4 C         141.0473  141.9009  160.6466 C.ar    1  UNL1        0.1388
      5 C         140.9522  142.1517  162.1224 C.ar    1  UNL1        0.0786
      6 S         140.6724  141.2391  163.2795 S.2     1  UNL1       -0.0826
      7 C         140.7039  142.0594  164.5349 C.ar    1  UNL1        0.0311
      8 C         141.0032  143.4790  164.1537 C.ar    1  UNL1        0.0263
      9 C         141.1567  143.5360  162.6627 C.ar    1  UNL1        0.0933
     10 N         141.4563  144.6695  161.7272 N.ar    1  UNL1       -0.2134
     11 H         141.9134  145.3879  158.3471 H       1  UNL1        0.1452
     12 H         141.9852  146.4610  159.6704 H       1  UNL1        0.1452
     13 C         140.4760  141.5497  165.9272 C.ar    1  UNL1        0.0060
     14 C         141.1730  142.1977  167.0865 C.ar    1  UNL1        0.0004
     15 C         140.9451  141.6879  168.4788 C.ar    1  UNL1        0.0039
     16 C         140.0202  140.5302  168.7116 C.ar    1  UNL1        0.0714
     17 C         139.3232  139.8822  167.5522 C.ar    1  UNL1        0.0039
     18 C         139.5511  140.3920  166.1600 C.ar    1  UNL1        0.0004
     19 C         139.7924  140.0205  170.1038 C.3     1  UNL1        0.4186
     20 F         139.5646  139.5108  171.4960 F       1  UNL1       -0.1659
     21 F         138.4345  140.6577  170.1149 F       1  UNL1       -0.1659
     22 F         141.1503  139.3834  170.0927 F       1  UNL1       -0.1659
     23 N         140.8429  140.5166  160.1062 N.pl3   1  UNL1       -0.3178
     24 H         140.1364  140.3469  159.4419 H       1  UNL1        0.1482
     25 C         141.7147  139.3909  160.5781 C.3     1  UNL1        0.0874
     26 C         143.2145  139.3722  160.5649 C.3     1  UNL1        0.0380
     27 C         143.6665  138.0560  161.1247 C.3     1  UNL1        0.0704
     28 N         142.4461  137.2613  161.4839 N.3     1  UNL1       -0.2960
     29 C         141.2398  138.0864  161.1461 C.3     1  UNL1        0.0884
     30 H         142.4523  137.0495  162.4816 H       1  UNL1        0.1233
@<TRIPOS>BOND
     1     1     2    1
     2     2     3   ar
     3     3     4   ar
     4     4    23    1
     5    23    25    1
     6    25    26    1
     7    26    27    1
     8    27    28    1
     9    28    29    1
    10     4     5   ar
    11     5     6   ar
    12     6     7   ar
    13     7    13    1
    14    13    14   ar
    15    14    15   ar
    16    15    16   ar
    17    16    19    1
    18    19    20    1
    19    19    21    1
    20    19    22    1
    21    16    17   ar
    22    17    18   ar
    23     7     8   ar
    24     8     9   ar
    25     9    10   ar
    26    10     2   ar
    27    29    25    1
    28     9     5   ar
    29    18    13   ar
    30     1    11    1
    31     1    12    1
    32    23    24    1
    33    28    30    1
