@<TRIPOS>MOLECULE
*****
 22 24 0 0 0
SMALL
GASTEIGER

@<TRIPOS>ATOM
      1 N         139.4210  139.8868  167.7650 N.ar    1  UNL1       -0.2075
      2 C         139.7474  139.7957  166.3037 C.ar    1  UNL1        0.1378
      3 C         138.6712  138.9906  165.6377 C.ar    1  UNL1        0.1713
      4 N         137.6796  138.5842  166.6873 N.ar    1  UNL1       -0.1135
      5 N         138.1430  139.1381  168.0020 N.ar    1  UNL1       -0.0583
      6 F         140.9999  144.3124  169.9834 F       1  UNL1       -0.2041
      7 C         141.0199  142.8141  169.9155 C.ar    1  UNL1        0.1416
      8 C         141.8493  142.0302  170.8889 C.ar    1  UNL1        0.0297
      9 C         141.8693  140.5319  170.8210 C.ar    1  UNL1        0.0039
     10 C         141.0599  139.8174  169.7798 C.ar    1  UNL1        0.0193
     11 C         140.2305  140.6013  168.8063 C.ar    1  UNL1        0.0868
     12 C         140.2105  142.0996  168.8742 C.ar    1  UNL1        0.0488
     13 N         138.5992  138.6515  164.1783 N.pl3   1  UNL1       -0.3142
     14 H         138.8354  137.7465  163.8710 H       1  UNL1        0.1483
     15 C         138.1673  139.6913  163.1871 C.3     1  UNL1        0.1058
     16 C         139.1066  140.7950  162.8006 C.3     1  UNL1        0.0936
     17 N         139.0913  142.0915  163.5548 N.3     1  UNL1       -0.2712
     18 C         137.7856  142.7533  163.8821 C.3     1  UNL1        0.0721
     19 C         137.7702  144.0498  164.6363 C.3     1  UNL1        0.0174
     20 C         139.0607  144.6845  165.0632 C.3     1  UNL1        0.0029
     21 C         140.3663  144.0227  164.7359 C.3     1  UNL1        0.0174
     22 C         140.3816  142.7262  163.9816 C.3     1  UNL1        0.0721
@<TRIPOS>BOND
     1     6     7    1
     2     7     8   ar
     3     8     9   ar
     4     9    10   ar
     5    10    11   ar
     6    11     1    1
     7     1     2   ar
     8     2     3   ar
     9     3    13    1
    10    13    15    1
    11    15    16    1
    12    16    17    1
    13    17    18    1
    14    18    19    1
    15    19    20    1
    16    20    21    1
    17    21    22    1
    18     3     4   ar
    19     4     5   ar
    20    11    12   ar
    21    12     7   ar
    22     5     1   ar
    23    22    17    1
    24    13    14    1
@<TRIPOS>MOLECULE
*****
 22 24 0 0 0
SMALL
GASTEIGER

@<TRIPOS>ATOM
      1 N         138.2927  141.4284  163.0487 N.ar    1  UNL1       -0.2075
      2 C         138.7245  142.7921  163.5001 C.ar    1  UNL1        0.1378
      3 C         138.3920  143.7679  162.4105 C.ar    1  UNL1        0.1713
      4 N         137.7546  143.0072  161.2857 N.ar    1  UNL1       -0.1135
      5 N         137.6932  141.5613  161.6802 N.ar    1  UNL1       -0.0583
      6 F         137.9870  138.8512  167.5504 F       1  UNL1       -0.2041
      7 C         138.2825  138.8667  166.0799 C.ar    1  UNL1        0.1416
      8 C         138.7205  137.6091  165.3896 C.ar    1  UNL1        0.0297
      9 C         139.0159  137.6245  163.9191 C.ar    1  UNL1        0.0039
     10 C         138.8733  138.8976  163.1388 C.ar    1  UNL1        0.0193
     11 C         138.4353  140.1552  163.8290 C.ar    1  UNL1        0.0868
     12 C         138.1399  140.1398  165.2996 C.ar    1  UNL1        0.0488
     13 N         138.6512  145.2450  162.4404 N.pl3   1  UNL1       -0.3142
     14 H         137.9372  145.8647  162.7150 H       1  UNL1        0.1483
     15 C         139.9984  145.7781  162.0518 C.3     1  UNL1        0.1058
     16 C         141.0241  144.8609  161.4545 C.3     1  UNL1        0.0936
     17 N         142.1292  144.3139  162.3086 N.3     1  UNL1       -0.2712
     18 C         142.6998  142.9573  162.0185 C.3     1  UNL1        0.0721
     19 C         143.8049  142.4103  162.8726 C.3     1  UNL1        0.0174
     20 C         144.3395  143.2199  164.0167 C.3     1  UNL1        0.0029
     21 C         143.7689  144.5764  164.3067 C.3     1  UNL1        0.0174
     22 C         142.6638  145.1234  163.4526 C.3     1  UNL1        0.0721
@<TRIPOS>BOND
     1     6     7    1
     2     7     8   ar
     3     8     9   ar
     4     9    10   ar
     5    10    11   ar
     6    11     1    1
     7     1     2   ar
     8     2     3   ar
     9     3    13    1
    10    13    15    1
    11    15    16    1
    12    16    17    1
    13    17    18    1
    14    18    19    1
    15    19    20    1
    16    20    21    1
    17    21    22    1
    18     3     4   ar
    19     4     5   ar
    20    11    12   ar
    21    12     7   ar
    22     5     1   ar
    23    22    17    1
    24    13    14    1
@<TRIPOS>MOLECULE
*****
 22 24 0 0 0
SMALL
GASTEIGER

@<TRIPOS>ATOM
      1 N         142.0587  139.9368  167.6706 N.ar    1  UNL1       -0.2075
      2 C         142.0164  139.9733  166.1717 C.ar    1  UNL1        0.1378
      3 C         143.0050  138.9703  165.6554 C.ar    1  UNL1        0.1713
      4 N         143.6584  138.3139  166.8354 N.ar    1  UNL1       -0.1135
      5 N         143.0736  138.9112  168.0808 N.ar    1  UNL1       -0.0583
      6 F         141.2118  144.4502  170.1021 F       1  UNL1       -0.2041
      7 C         140.8080  143.0349  169.8125 C.ar    1  UNL1        0.1416
      8 C         139.5770  142.4610  170.4490 C.ar    1  UNL1        0.0297
      9 C         139.1732  141.0457  170.1594 C.ar    1  UNL1        0.0039
     10 C         140.0004  140.2043  169.2333 C.ar    1  UNL1        0.0193
     11 C         141.2314  140.7782  168.5968 C.ar    1  UNL1        0.0868
     12 C         141.6352  142.1935  168.8864 C.ar    1  UNL1        0.0488
     13 N         143.2902  138.6754  164.2126 N.pl3   1  UNL1       -0.3142
     14 H         142.6785  138.1014  163.6973 H       1  UNL1        0.1483
     15 C         144.5074  139.2551  163.5550 C.3     1  UNL1        0.1058
     16 C         145.2156  140.4195  164.1816 C.3     1  UNL1        0.0936
     17 N         144.7905  141.8203  163.8543 N.3     1  UNL1       -0.2712
     18 C         144.7868  142.2893  162.4295 C.3     1  UNL1        0.0721
     19 C         144.3617  143.6901  162.1022 C.3     1  UNL1        0.0174
     20 C         143.9404  144.6218  163.1997 C.3     1  UNL1        0.0029
     21 C         143.9441  144.1528  164.6244 C.3     1  UNL1        0.0174
     22 C         144.3692  142.7520  164.9517 C.3     1  UNL1        0.0721
@<TRIPOS>BOND
     1     6     7    1
     2     7     8   ar
     3     8     9   ar
     4     9    10   ar
     5    10    11   ar
     6    11     1    1
     7     1     2   ar
     8     2     3   ar
     9     3    13    1
    10    13    15    1
    11    15    16    1
    12    16    17    1
    13    17    18    1
    14    18    19    1
    15    19    20    1
    16    20    21    1
    17    21    22    1
    18     3     4   ar
    19     4     5   ar
    20    11    12   ar
    21    12     7   ar
    22     5     1   ar
    23    22    17    1
    24    13    14    1
@<TRIPOS>MOLECULE
*****
 22 24 0 0 0
SMALL
GASTEIGER

@<TRIPOS>ATOM
      1 N         138.4846  142.2853  164.0322 N.ar    1  UNL1       -0.2075
      2 C         138.8926  143.7232  163.9059 C.ar    1  UNL1        0.1378
      3 C         138.4006  144.2302  162.5827 C.ar    1  UNL1        0.1713
      4 N         137.6886  143.1055  161.8912 N.ar    1  UNL1       -0.1135
      5 N         137.7405  141.9035  162.7870 N.ar    1  UNL1       -0.0583
      6 F         137.7751  137.7804  166.5228 F       1  UNL1       -0.2041
      7 C         138.4158  139.1344  166.4441 C.ar    1  UNL1        0.1416
      8 C         139.3424  139.5900  167.5322 C.ar    1  UNL1        0.0297
      9 C         139.9830  140.9441  167.4536 C.ar    1  UNL1        0.0039
     10 C         139.6971  141.8425  166.2869 C.ar    1  UNL1        0.0193
     11 C         138.7705  141.3869  165.1989 C.ar    1  UNL1        0.0868
     12 C         138.1299  140.0328  165.2775 C.ar    1  UNL1        0.0488
     13 N         138.5878  145.6180  162.0454 N.pl3   1  UNL1       -0.3142
     14 H         137.8099  146.2104  161.9303 H       1  UNL1        0.1483
     15 C         139.9602  146.1034  161.6832 C.3     1  UNL1        0.1058
     16 C         140.9497  145.1613  161.0641 C.3     1  UNL1        0.0936
     17 N         142.0759  144.6094  161.8869 N.3     1  UNL1       -0.2712
     18 C         142.3074  145.1184  163.2788 C.3     1  UNL1        0.0721
     19 C         143.4336  144.5665  164.1015 C.3     1  UNL1        0.0174
     20 C         144.3284  143.5055  163.5324 C.3     1  UNL1        0.0029
     21 C         144.0969  142.9965  162.1405 C.3     1  UNL1        0.0174
     22 C         142.9707  143.5485  161.3178 C.3     1  UNL1        0.0721
@<TRIPOS>BOND
     1     6     7    1
     2     7     8   ar
     3     8     9   ar
     4     9    10   ar
     5    10    11   ar
     6    11     1    1
     7     1     2   ar
     8     2     3   ar
     9     3    13    1
    10    13    15    1
    11    15    16    1
    12    16    17    1
    13    17    18    1
    14    18    19    1
    15    19    20    1
    16    20    21    1
    17    21    22    1
    18     3     4   ar
    19     4     5   ar
    20    11    12   ar
    21    12     7   ar
    22     5     1   ar
    23    22    17    1
    24    13    14    1
@<TRIPOS>MOLECULE
*****
 22 24 0 0 0
SMALL
GASTEIGER

@<TRIPOS>ATOM
      1 N         143.4651  142.4270  164.3004 N.ar    1  UNL1       -0.2075
      2 C         142.4236  143.2738  163.6309 C.ar    1  UNL1        0.1378
      3 C         143.0926  144.0538  162.5382 C.ar    1  UNL1        0.1713
      4 N         144.5476  143.6891  162.5324 N.ar    1  UNL1       -0.1135
      5 N         144.7778  142.6836  163.6214 N.ar    1  UNL1       -0.0583
      6 F         143.4156  137.6010  166.2259 F       1  UNL1       -0.2041
      7 C         143.2097  139.0753  166.4102 C.ar    1  UNL1        0.1416
      8 C         142.7730  139.6110  167.7415 C.ar    1  UNL1        0.0297
      9 C         142.5670  141.0853  167.9257 C.ar    1  UNL1        0.0039
     10 C         142.7977  142.0240  166.7788 C.ar    1  UNL1        0.0193
     11 C         143.2344  141.4883  165.4475 C.ar    1  UNL1        0.0868
     12 C         143.4404  140.0140  165.2632 C.ar    1  UNL1        0.0488
     13 N         142.4240  145.0276  161.6137 N.pl3   1  UNL1       -0.3142
     14 H         142.6683  145.9809  161.6424 H       1  UNL1        0.1483
     15 C         141.3832  144.5489  160.6453 C.3     1  UNL1        0.1058
     16 C         139.9435  144.9170  160.8491 C.3     1  UNL1        0.0936
     17 N         139.1902  144.3746  162.0274 N.3     1  UNL1       -0.2712
     18 C         139.2631  145.0758  163.3514 C.3     1  UNL1        0.0721
     19 C         138.5099  144.5334  164.5298 C.3     1  UNL1        0.0174
     20 C         137.6837  143.2899  164.3840 C.3     1  UNL1        0.0029
     21 C         137.6108  142.5888  163.0600 C.3     1  UNL1        0.0174
     22 C         138.3641  143.1311  161.8817 C.3     1  UNL1        0.0721
@<TRIPOS>BOND
     1     6     7    1
     2     7     8   ar
     3     8     9   ar
     4     9    10   ar
     5    10    11   ar
     6    11     1    1
     7     1     2   ar
     8     2     3   ar
     9     3    13    1
    10    13    15    1
    11    15    16    1
    12    16    17    1
    13    17    18    1
    14    18    19    1
    15    19    20    1
    16    20    21    1
    17    21    22    1
    18     3     4   ar
    19     4     5   ar
    20    11    12   ar
    21    12     7   ar
    22     5     1   ar
    23    22    17    1
    24    13    14    1
@<TRIPOS>MOLECULE
*****
 22 24 0 0 0
SMALL
GASTEIGER

@<TRIPOS>ATOM
      1 N         139.5082  140.1081  167.5987 N.ar    1  UNL1       -0.2075
      2 C         139.5580  140.2910  166.1107 C.ar    1  UNL1        0.1378
      3 C         138.4522  139.4774  165.5064 C.ar    1  UNL1        0.1713
      4 N         137.7190  138.7917  166.6210 N.ar    1  UNL1       -0.1135
      5 N         138.3716  139.1815  167.9141 N.ar    1  UNL1       -0.0583
      6 F         143.3244  139.6813  171.0994 F       1  UNL1       -0.2041
      7 C         142.3409  140.5274  170.3466 C.ar    1  UNL1        0.1416
      8 C         142.2819  142.0061  170.5912 C.ar    1  UNL1        0.0297
      9 C         141.2983  142.8521  169.8383 C.ar    1  UNL1        0.0039
     10 C         140.3738  142.2195  168.8409 C.ar    1  UNL1        0.0193
     11 C         140.4328  140.7408  168.5962 C.ar    1  UNL1        0.0868
     12 C         141.4163  139.8947  169.3491 C.ar    1  UNL1        0.0488
     13 N         138.1353  139.3687  164.0443 N.pl3   1  UNL1       -0.3142
     14 H         137.2534  139.0402  163.7549 H       1  UNL1        0.1483
     15 C         139.1619  139.7603  163.0232 C.3     1  UNL1        0.1058
     16 C         139.1119  141.1205  162.3929 C.3     1  UNL1        0.0936
     17 N         139.0808  142.3466  163.2564 N.3     1  UNL1       -0.2712
     18 C         140.3616  143.0285  163.6369 C.3     1  UNL1        0.0721
     19 C         140.3306  144.2546  164.5005 C.3     1  UNL1        0.0174
     20 C         139.0188  144.7988  164.9835 C.3     1  UNL1        0.0029
     21 C         137.7382  144.1169  164.6030 C.3     1  UNL1        0.0174
     22 C         137.7692  142.8908  163.7395 C.3     1  UNL1        0.0721
@<TRIPOS>BOND
     1     6     7    1
     2     7     8   ar
     3     8     9   ar
     4     9    10   ar
     5    10    11   ar
     6    11     1    1
     7     1     2   ar
     8     2     3   ar
     9     3    13    1
    10    13    15    1
    11    15    16    1
    12    16    17    1
    13    17    18    1
    14    18    19    1
    15    19    20    1
    16    20    21    1
    17    21    22    1
    18     3     4   ar
    19     4     5   ar
    20    11    12   ar
    21    12     7   ar
    22     5     1   ar
    23    22    17    1
    24    13    14    1
@<TRIPOS>MOLECULE
*****
 22 24 0 0 0
SMALL
GASTEIGER

@<TRIPOS>ATOM
      1 N         139.3510  139.8433  167.8484 N.ar    1  UNL1       -0.2075
      2 C         139.7115  139.7073  166.3987 C.ar    1  UNL1        0.1378
      3 C         138.6552  138.8749  165.7345 C.ar    1  UNL1        0.1713
      4 N         137.6418  138.4965  166.7737 N.ar    1  UNL1       -0.1135
      5 N         138.0719  139.0950  168.0802 N.ar    1  UNL1       -0.0583
      6 F         140.8624  144.3473  169.9531 F       1  UNL1       -0.2041
      7 C         140.8882  142.8477  169.9368 C.ar    1  UNL1        0.1416
      8 C         141.6955  142.1003  170.9564 C.ar    1  UNL1        0.0297
      9 C         141.7213  140.6006  170.9400 C.ar    1  UNL1        0.0039
     10 C         140.9398  139.8483  169.9041 C.ar    1  UNL1        0.0193
     11 C         140.1326  140.5956  168.8845 C.ar    1  UNL1        0.0868
     12 C         140.1067  142.0953  168.9008 C.ar    1  UNL1        0.0488
     13 N         138.6186  138.4887  164.2856 N.pl3   1  UNL1       -0.3142
     14 H         137.8469  138.7403  163.7284 H       1  UNL1        0.1483
     15 C         139.7578  137.7192  163.6855 C.3     1  UNL1        0.1058
     16 C         140.7603  138.4190  162.8165 C.3     1  UNL1        0.0936
     17 N         142.1104  138.7740  163.3652 N.3     1  UNL1       -0.2712
     18 C         143.0878  139.5343  162.5187 C.3     1  UNL1        0.0721
     19 C         144.4380  139.8892  163.0675 C.3     1  UNL1        0.0174
     20 C         144.8107  139.4838  164.4628 C.3     1  UNL1        0.0029
     21 C         143.8333  138.7235  165.3093 C.3     1  UNL1        0.0174
     22 C         142.4831  138.3685  164.7605 C.3     1  UNL1        0.0721
@<TRIPOS>BOND
     1     6     7    1
     2     7     8   ar
     3     8     9   ar
     4     9    10   ar
     5    10    11   ar
     6    11     1    1
     7     1     2   ar
     8     2     3   ar
     9     3    13    1
    10    13    15    1
    11    15    16    1
    12    16    17    1
    13    17    18    1
    14    18    19    1
    15    19    20    1
    16    20    21    1
    17    21    22    1
    18     3     4   ar
    19     4     5   ar
    20    11    12   ar
    21    12     7   ar
    22     5     1   ar
    23    22    17    1
    24    13    14    1
@<TRIPOS>MOLECULE
*****
 22 24 0 0 0
SMALL
GASTEIGER

@<TRIPOS>ATOM
      1 N         139.4277  139.8500  167.7890 N.ar    1  UNL1       -0.2075
      2 C         139.6739  140.0275  166.3200 C.ar    1  UNL1        0.1378
      3 C         138.6361  139.2391  165.5775 C.ar    1  UNL1        0.1713
      4 N         137.7484  138.5744  166.5876 N.ar    1  UNL1       -0.1135
      5 N         138.2377  138.9519  167.9543 N.ar    1  UNL1       -0.0583
      6 F         143.4193  139.6288  171.1083 F       1  UNL1       -0.2041
      7 C         142.2263  140.3524  170.5576 C.ar    1  UNL1        0.1416
      8 C         141.8362  141.6888  171.1158 C.ar    1  UNL1        0.0297
      9 C         140.6432  142.4124  170.5651 C.ar    1  UNL1        0.0039
     10 C         139.8404  141.7994  169.4562 C.ar    1  UNL1        0.0193
     11 C         140.2305  140.4630  168.8980 C.ar    1  UNL1        0.0868
     12 C         141.4235  139.7394  169.4487 C.ar    1  UNL1        0.0488
     13 N         138.5084  139.1339  164.0866 N.pl3   1  UNL1       -0.3142
     14 H         137.8452  139.6833  163.6094 H       1  UNL1        0.1483
     15 C         139.3910  138.1918  163.3228 C.3     1  UNL1        0.1058
     16 C         140.4898  137.4545  164.0292 C.3     1  UNL1        0.0936
     17 N         141.8644  138.0502  164.1053 N.3     1  UNL1       -0.2712
     18 C         142.5288  138.2349  165.4374 C.3     1  UNL1        0.0721
     19 C         143.9034  138.8306  165.5136 C.3     1  UNL1        0.0174
     20 C         144.6134  139.2416  164.2576 C.3     1  UNL1        0.0029
     21 C         143.9489  139.0568  162.9257 C.3     1  UNL1        0.0174
     22 C         142.5743  138.4611  162.8495 C.3     1  UNL1        0.0721
@<TRIPOS>BOND
     1     6     7    1
     2     7     8   ar
     3     8     9   ar
     4     9    10   ar
     5    10    11   ar
     6    11     1    1
     7     1     2   ar
     8     2     3   ar
     9     3    13    1
    10    13    15    1
    11    15    16    1
    12    16    17    1
    13    17    18    1
    14    18    19    1
    15    19    20    1
    16    20    21    1
    17    21    22    1
    18     3     4   ar
    19     4     5   ar
    20    11    12   ar
    21    12     7   ar
    22     5     1   ar
    23    22    17    1
    24    13    14    1
@<TRIPOS>MOLECULE
*****
 22 24 0 0 0
SMALL
GASTEIGER

@<TRIPOS>ATOM
      1 N         138.7738  141.7930  164.4225 N.ar    1  UNL1       -0.2075
      2 C         139.9501  142.7236  164.4140 C.ar    1  UNL1        0.1378
      3 C         139.4468  144.1043  164.1133 C.ar    1  UNL1        0.1713
      4 N         137.9593  144.0269  163.9359 N.ar    1  UNL1       -0.1135
      5 N         137.5434  142.5984  164.1270 N.ar    1  UNL1       -0.0583
      6 F         137.4131  137.6831  167.2961 F       1  UNL1       -0.2041
      7 C         138.1394  138.2612  166.1179 C.ar    1  UNL1        0.1416
      8 C         138.9117  137.3625  165.1982 C.ar    1  UNL1        0.0297
      9 C         139.6381  137.9406  164.0200 C.ar    1  UNL1        0.0039
     10 C         139.5921  139.4174  163.7614 C.ar    1  UNL1        0.0193
     11 C         138.8198  140.3161  164.6810 C.ar    1  UNL1        0.0868
     12 C         138.0935  139.7380  165.8593 C.ar    1  UNL1        0.0488
     13 N         140.2839  145.3445  164.0084 N.pl3   1  UNL1       -0.3142
     14 H         140.0201  146.1590  164.4946 H       1  UNL1        0.1483
     15 C         141.5229  145.3438  163.1629 C.3     1  UNL1        0.1058
     16 C         142.8723  145.2415  163.8098 C.3     1  UNL1        0.0936
     17 N         143.7498  144.0573  163.5311 N.3     1  UNL1       -0.2712
     18 C         144.0216  143.6419  162.1156 C.3     1  UNL1        0.0721
     19 C         144.8991  142.4577  161.8369 C.3     1  UNL1        0.0174
     20 C         145.5047  141.6889  162.9738 C.3     1  UNL1        0.0029
     21 C         145.2328  142.1043  164.3892 C.3     1  UNL1        0.0174
     22 C         144.3554  143.2885  164.6679 C.3     1  UNL1        0.0721
@<TRIPOS>BOND
     1     6     7    1
     2     7     8   ar
     3     8     9   ar
     4     9    10   ar
     5    10    11   ar
     6    11     1    1
     7     1     2   ar
     8     2     3   ar
     9     3    13    1
    10    13    15    1
    11    15    16    1
    12    16    17    1
    13    17    18    1
    14    18    19    1
    15    19    20    1
    16    20    21    1
    17    21    22    1
    18     3     4   ar
    19     4     5   ar
    20    11    12   ar
    21    12     7   ar
    22     5     1   ar
    23    22    17    1
    24    13    14    1
