@<TRIPOS>MOLECULE
*****
 36 40 0 0 0
SMALL
GASTEIGER

@<TRIPOS>ATOM
      1 C         142.5833  140.4776  169.8461 C.ar    1  UNL1        0.1591
      2 C         142.1982  141.2393  171.0795 C.ar    1  UNL1        0.1356
      3 N         141.4872  142.5544  170.9574 N.ar    1  UNL1       -0.2360
      4 C         141.1614  143.1079  169.6019 C.ar    1  UNL1        0.1356
      5 C         141.5465  142.3461  168.3685 C.ar    1  UNL1        0.1592
      6 C         142.2575  141.0310  168.4906 C.ar    1  UNL1        0.0787
      7 C         142.5097  140.5102  167.1067 C.3     1  UNL1        0.1743
      8 O         143.0648  139.5169  168.0841 O.3     1  UNL1       -0.3765
      9 C         143.1050  139.3755  166.3268 C.3     1  UNL1        0.1444
     10 O         143.7706  138.1619  166.9048 O.3     1  UNL1       -0.3815
     11 C         142.9179  139.6676  164.8674 C.3     1  UNL1        0.0535
     12 C         142.2069  140.9827  164.7453 C.3     1  UNL1        0.0694
     13 C         141.9547  141.5035  166.1292 C.3     1  UNL1        0.1835
     14 O         141.3594  142.6381  166.9091 O.3     1  UNL1       -0.4740
     15 H         142.9128  139.8334  168.9883 H       1  UNL1        0.2109
     16 H         143.7602  138.2178  167.8731 H       1  UNL1        0.2105
     17 C         141.8167  141.6585  163.4643 C.ar    1  UNL1       -0.0186
     18 C         140.4790  141.3787  162.8461 C.ar    1  UNL1       -0.0041
     19 C         140.0887  142.0545  161.5650 C.ar    1  UNL1       -0.0003
     20 C         141.0362  143.0100  160.9022 C.ar    1  UNL1       -0.0000
     21 C         142.3740  143.2897  161.5205 C.ar    1  UNL1       -0.0003
     22 C         142.7642  142.6139  162.8015 C.ar    1  UNL1       -0.0041
     23 C         141.3996  142.4968  165.1518 C.ar    1  UNL1        0.0165
     24 C         142.2704  143.5997  164.6271 C.ar    1  UNL1       -0.0002
     25 C         141.7153  144.5929  163.6497 C.ar    1  UNL1        0.0101
     26 C         140.2894  144.4833  163.1970 C.ar    1  UNL1        0.0684
     27 C         139.4187  143.3804  163.7217 C.ar    1  UNL1        0.0101
     28 C         139.9738  142.3871  164.6992 C.ar    1  UNL1       -0.0002
     29 C         139.7344  145.4765  162.2196 C.1     1  UNL1        0.1004
     30 N         139.1794  146.4698  161.2422 N.1     1  UNL1       -0.1908
     31 C         142.6004  137.9902  170.5962 C.3     1  UNL1        0.2525
     32 O         143.2942  139.1624  169.9682 O.3     1  UNL1       -0.4700
     33 C         143.3635  138.7972  163.7299 C.3     1  UNL1        0.0751
     34 N         142.3509  138.0360  162.9266 N.3     1  UNL1       -0.2702
     35 C         141.2438  137.2988  163.6202 C.3     1  UNL1        0.0897
     36 C         142.4453  138.0120  161.4298 C.3     1  UNL1        0.0897
@<TRIPOS>BOND
     1    31    32    1
     2    32     1    1
     3     1     2   ar
     4     2     3   ar
     5     3     4   ar
     6     4     5   ar
     7     5     6   ar
     8     6     7    1
     9     7     8    1
    10     7     9    1
    11     9    10    1
    12     9    11    1
    13    11    33    1
    14    33    34    1
    15    34    35    1
    16    34    36    1
    17    11    12    1
    18    12    17    1
    19    17    18   ar
    20    18    19   ar
    21    19    20   ar
    22    20    21   ar
    23    21    22   ar
    24    12    13    1
    25    13    23    1
    26    23    24   ar
    27    24    25   ar
    28    25    26   ar
    29    26    29    1
    30    29    30    3
    31    26    27   ar
    32    27    28   ar
    33    13    14    1
    34     6     1   ar
    35    13     7    1
    36    28    23   ar
    37    14     5    1
    38    22    17   ar
    39     8    15    1
    40    10    16    1
@<TRIPOS>MOLECULE
*****
 36 40 0 0 0
SMALL
GASTEIGER

@<TRIPOS>ATOM
      1 C         142.9738  143.8467  158.1436 C.ar    1  UNL1        0.1591
      2 C         143.7073  143.1753  157.0206 C.ar    1  UNL1        0.1356
      3 N         144.4097  141.8712  157.2572 N.ar    1  UNL1       -0.2360
      4 C         144.3787  141.2386  158.6169 C.ar    1  UNL1        0.1356
      5 C         143.6453  141.9100  159.7399 C.ar    1  UNL1        0.1592
      6 C         142.9428  143.2140  159.5033 C.ar    1  UNL1        0.0787
      7 C         142.3060  143.6383  160.7934 C.3     1  UNL1        0.1743
      8 O         141.9971  144.6802  159.7594 O.3     1  UNL1       -0.3765
      9 C         141.4783  144.7065  161.4445 C.3     1  UNL1        0.1444
     10 O         140.9466  145.9397  160.7765 O.3     1  UNL1       -0.3815
     11 C         141.2756  144.3248  162.8810 C.3     1  UNL1        0.0535
     12 C         141.9780  143.0207  163.1176 C.3     1  UNL1        0.0694
     13 C         142.6149  142.5965  161.8275 C.3     1  UNL1        0.1835
     14 O         143.4426  141.5283  161.1763 O.3     1  UNL1       -0.4740
     15 H         142.4000  144.4264  158.9143 H       1  UNL1        0.2109
     16 H         141.2203  145.9469  159.8460 H       1  UNL1        0.2105
     17 C         142.0339  142.2723  164.4164 C.ar    1  UNL1       -0.0186
     18 C         143.1411  142.5438  165.3913 C.ar    1  UNL1       -0.0041
     19 C         143.1970  141.7953  166.6901 C.ar    1  UNL1       -0.0003
     20 C         142.1457  140.7755  167.0139 C.ar    1  UNL1       -0.0000
     21 C         141.0385  140.5041  166.0388 C.ar    1  UNL1       -0.0003
     22 C         140.9827  141.2526  164.7401 C.ar    1  UNL1       -0.0041
     23 C         142.9237  141.5546  162.8615 C.ar    1  UNL1        0.0165
     24 C         144.1663  141.6694  163.6939 C.ar    1  UNL1       -0.0002
     25 C         144.4750  140.6275  164.7279 C.ar    1  UNL1        0.0101
     26 C         143.5413  139.4709  164.9295 C.ar    1  UNL1        0.0684
     27 C         142.2989  139.3562  164.0971 C.ar    1  UNL1        0.0101
     28 C         141.9900  140.3981  163.0630 C.ar    1  UNL1       -0.0002
     29 C         143.8502  138.4291  165.9635 C.1     1  UNL1        0.1004
     30 N         144.1590  137.3873  166.9975 N.1     1  UNL1       -0.1908
     31 C         141.7903  145.5046  156.5310 C.3     1  UNL1        0.2525
     32 O         142.2714  145.1507  157.9070 O.3     1  UNL1       -0.4700
     33 C         140.5056  145.1094  163.9015 C.3     1  UNL1        0.0751
     34 N         139.0639  144.7883  164.1630 N.3     1  UNL1       -0.2702
     35 C         138.5247  144.8448  165.5616 C.3     1  UNL1        0.0897
     36 C         138.1614  144.4108  163.0259 C.3     1  UNL1        0.0897
@<TRIPOS>BOND
     1    31    32    1
     2    32     1    1
     3     1     2   ar
     4     2     3   ar
     5     3     4   ar
     6     4     5   ar
     7     5     6   ar
     8     6     7    1
     9     7     8    1
    10     7     9    1
    11     9    10    1
    12     9    11    1
    13    11    33    1
    14    33    34    1
    15    34    35    1
    16    34    36    1
    17    11    12    1
    18    12    17    1
    19    17    18   ar
    20    18    19   ar
    21    19    20   ar
    22    20    21   ar
    23    21    22   ar
    24    12    13    1
    25    13    23    1
    26    23    24   ar
    27    24    25   ar
    28    25    26   ar
    29    26    29    1
    30    29    30    3
    31    26    27   ar
    32    27    28   ar
    33    13    14    1
    34     6     1   ar
    35    13     7    1
    36    28    23   ar
    37    14     5    1
    38    22    17   ar
    39     8    15    1
    40    10    16    1
@<TRIPOS>MOLECULE
*****
 36 40 0 0 0
SMALL
GASTEIGER

@<TRIPOS>ATOM
      1 C         141.0515  145.0382  161.0589 C.ar    1  UNL1        0.1591
      2 C         139.8577  145.8932  160.7522 C.ar    1  UNL1        0.1356
      3 N         138.6981  145.9309  161.7029 N.ar    1  UNL1       -0.2360
      4 C         138.7322  145.1138  162.9603 C.ar    1  UNL1        0.1356
      5 C         139.9259  144.2589  163.2670 C.ar    1  UNL1        0.1592
      6 C         141.0855  144.2211  162.3163 C.ar    1  UNL1        0.0787
      7 C         142.1181  143.2913  162.8814 C.3     1  UNL1        0.1743
      8 O         142.6396  143.8282  161.5814 O.3     1  UNL1       -0.3765
      9 C         143.4730  142.6933  162.6431 C.3     1  UNL1        0.1444
     10 O         144.3568  142.9557  161.4599 O.3     1  UNL1       -0.3815
     11 C         143.7888  141.7868  163.7958 C.3     1  UNL1        0.0535
     12 C         142.6291  141.8246  164.7464 C.3     1  UNL1        0.0694
     13 C         141.5966  142.7544  164.1813 C.3     1  UNL1        0.1835
     14 O         140.2417  143.3524  164.4196 O.3     1  UNL1       -0.4740
     15 H         141.9868  144.4336  161.1965 H       1  UNL1        0.2109
     16 H         143.9177  143.5791  160.8604 H       1  UNL1        0.2105
     17 C         142.5210  141.0658  166.0358 C.ar    1  UNL1       -0.0186
     18 C         141.9422  139.6820  166.0453 C.ar    1  UNL1       -0.0041
     19 C         141.8340  138.9231  167.3347 C.ar    1  UNL1       -0.0003
     20 C         142.3046  139.5481  168.6145 C.ar    1  UNL1       -0.0000
     21 C         142.8834  140.9320  168.6049 C.ar    1  UNL1       -0.0003
     22 C         142.9915  141.6908  167.3156 C.ar    1  UNL1       -0.0041
     23 C         141.0751  142.2175  165.4812 C.ar    1  UNL1        0.0165
     24 C         141.3668  142.9409  166.7625 C.ar    1  UNL1       -0.0002
     25 C         140.8453  142.4039  168.0624 C.ar    1  UNL1        0.0101
     26 C         140.0321  141.1436  168.0810 C.ar    1  UNL1        0.0684
     27 C         139.7404  140.4202  166.7998 C.ar    1  UNL1        0.0101
     28 C         140.2620  140.9572  165.4999 C.ar    1  UNL1       -0.0002
     29 C         139.5106  140.6067  169.3809 C.1     1  UNL1        0.1004
     30 N         138.9892  140.0698  170.6809 N.1     1  UNL1       -0.1908
     31 C         141.9986  144.5875  158.6820 C.3     1  UNL1        0.2525
     32 O         142.2111  145.0005  160.1082 O.3     1  UNL1       -0.4700
     33 C         145.0439  140.9836  163.9675 C.3     1  UNL1        0.0751
     34 N         144.9791  139.4851  163.9838 N.3     1  UNL1       -0.2702
     35 C         145.5520  138.7221  165.1412 C.3     1  UNL1        0.0897
     36 C         144.3414  138.7496  162.8426 C.3     1  UNL1        0.0897
@<TRIPOS>BOND
     1    31    32    1
     2    32     1    1
     3     1     2   ar
     4     2     3   ar
     5     3     4   ar
     6     4     5   ar
     7     5     6   ar
     8     6     7    1
     9     7     8    1
    10     7     9    1
    11     9    10    1
    12     9    11    1
    13    11    33    1
    14    33    34    1
    15    34    35    1
    16    34    36    1
    17    11    12    1
    18    12    17    1
    19    17    18   ar
    20    18    19   ar
    21    19    20   ar
    22    20    21   ar
    23    21    22   ar
    24    12    13    1
    25    13    23    1
    26    23    24   ar
    27    24    25   ar
    28    25    26   ar
    29    26    29    1
    30    29    30    3
    31    26    27   ar
    32    27    28   ar
    33    13    14    1
    34     6     1   ar
    35    13     7    1
    36    28    23   ar
    37    14     5    1
    38    22    17   ar
    39     8    15    1
    40    10    16    1
@<TRIPOS>MOLECULE
*****
 36 40 0 0 0
SMALL
GASTEIGER

@<TRIPOS>ATOM
      1 C         140.3862  143.7660  160.9805 C.ar    1  UNL1        0.1591
      2 C         140.4714  145.2304  160.6675 C.ar    1  UNL1        0.1356
      3 N         140.7748  146.2142  161.7584 N.ar    1  UNL1       -0.2360
      4 C         140.9930  145.7335  163.1624 C.ar    1  UNL1        0.1356
      5 C         140.9077  144.2690  163.4755 C.ar    1  UNL1        0.1592
      6 C         140.6043  143.2853  162.3845 C.ar    1  UNL1        0.0787
      7 C         140.5835  141.9132  162.9903 C.3     1  UNL1        0.1743
      8 O         140.2929  141.7774  161.5249 O.3     1  UNL1       -0.3765
      9 C         140.3831  140.4571  162.6903 C.3     1  UNL1        0.1444
     10 O         140.0709  139.8686  161.3465 O.3     1  UNL1       -0.3815
     11 C         140.5499  139.6930  163.9704 C.3     1  UNL1        0.0535
     12 C         140.8533  140.6768  165.0613 C.3     1  UNL1        0.0694
     13 C         140.8741  142.0489  164.4556 C.3     1  UNL1        0.1835
     14 O         141.0744  143.5049  164.7554 O.3     1  UNL1       -0.4740
     15 H         140.3012  142.6546  161.1110 H       1  UNL1        0.2109
     16 H         140.0163  140.5783  160.6875 H       1  UNL1        0.2105
     17 C         141.0937  140.3465  166.5046 C.ar    1  UNL1       -0.0186
     18 C         142.4813  140.0345  166.9814 C.ar    1  UNL1       -0.0041
     19 C         142.7218  139.7041  168.4248 C.ar    1  UNL1       -0.0003
     20 C         141.5747  139.6858  169.3912 C.ar    1  UNL1       -0.0000
     21 C         140.1871  139.9978  168.9142 C.ar    1  UNL1       -0.0003
     22 C         139.9467  140.3281  167.4709 C.ar    1  UNL1       -0.0041
     23 C         141.1646  142.1846  165.9209 C.ar    1  UNL1        0.0165
     24 C         140.0409  142.3942  166.8921 C.ar    1  UNL1       -0.0002
     25 C         140.3316  142.5299  168.3574 C.ar    1  UNL1        0.0101
     26 C         141.7459  142.4560  168.8515 C.ar    1  UNL1        0.0684
     27 C         142.8696  142.2464  167.8804 C.ar    1  UNL1        0.0101
     28 C         142.5790  142.1107  166.4150 C.ar    1  UNL1       -0.0002
     29 C         142.0364  142.5917  170.3168 C.1     1  UNL1        0.1004
     30 N         142.3270  142.7274  171.7821 N.1     1  UNL1       -0.1908
     31 C         138.7993  142.8874  159.1205 C.3     1  UNL1        0.2525
     32 O         140.0828  142.7822  159.8895 O.3     1  UNL1       -0.4700
     33 C         140.4336  138.2062  164.1311 C.3     1  UNL1        0.0751
     34 N         139.0806  137.5655  164.2246 N.3     1  UNL1       -0.2702
     35 C         138.5237  137.1810  165.5633 C.3     1  UNL1        0.0897
     36 C         138.2844  137.3092  162.9795 C.3     1  UNL1        0.0897
@<TRIPOS>BOND
     1    31    32    1
     2    32     1    1
     3     1     2   ar
     4     2     3   ar
     5     3     4   ar
     6     4     5   ar
     7     5     6   ar
     8     6     7    1
     9     7     8    1
    10     7     9    1
    11     9    10    1
    12     9    11    1
    13    11    33    1
    14    33    34    1
    15    34    35    1
    16    34    36    1
    17    11    12    1
    18    12    17    1
    19    17    18   ar
    20    18    19   ar
    21    19    20   ar
    22    20    21   ar
    23    21    22   ar
    24    12    13    1
    25    13    23    1
    26    23    24   ar
    27    24    25   ar
    28    25    26   ar
    29    26    29    1
    30    29    30    3
    31    26    27   ar
    32    27    28   ar
    33    13    14    1
    34     6     1   ar
    35    13     7    1
    36    28    23   ar
    37    14     5    1
    38    22    17   ar
    39     8    15    1
    40    10    16    1
@<TRIPOS>MOLECULE
*****
 36 40 0 0 0
SMALL
GASTEIGER

@<TRIPOS>ATOM
      1 C         141.8718  139.6468  160.0959 C.ar    1  UNL1        0.1591
      2 C         143.0449  138.8971  159.5375 C.ar    1  UNL1        0.1356
      3 N         144.1178  138.3914  160.4557 N.ar    1  UNL1       -0.2360
      4 C         144.0178  138.6354  161.9323 C.ar    1  UNL1        0.1356
      5 C         142.8447  139.3851  162.4907 C.ar    1  UNL1        0.1592
      6 C         141.7718  139.8908  161.5725 C.ar    1  UNL1        0.0787
      7 C         140.7411  140.5927  162.4063 C.3     1  UNL1        0.1743
      8 O         140.3051  140.6646  160.9728 O.3     1  UNL1       -0.3765
      9 C         139.4410  141.3391  162.3540 C.3     1  UNL1        0.1444
     10 O         138.6477  141.6427  161.1178 O.3     1  UNL1       -0.3815
     11 C         139.0735  141.7285  163.7553 C.3     1  UNL1        0.0535
     12 C         140.1465  141.2228  164.6735 C.3     1  UNL1        0.0694
     13 C         141.1771  140.5209  163.8397 C.3     1  UNL1        0.1835
     14 O         142.4772  139.7745  163.8919 O.3     1  UNL1       -0.4740
     15 H         140.9582  140.2159  160.4133 H       1  UNL1        0.2109
     16 H         139.1051  141.2802  160.3430 H       1  UNL1        0.2105
     17 C         140.1825  141.3897  166.1637 C.ar    1  UNL1       -0.0186
     18 C         140.8208  142.6058  166.7669 C.ar    1  UNL1       -0.0041
     19 C         140.8569  142.7727  168.2572 C.ar    1  UNL1       -0.0003
     20 C         140.2546  141.7237  169.1442 C.ar    1  UNL1       -0.0000
     21 C         139.6163  140.5076  168.5409 C.ar    1  UNL1       -0.0003
     22 C         139.5802  140.3407  167.0506 C.ar    1  UNL1       -0.0041
     23 C         141.6130  140.4490  165.2732 C.ar    1  UNL1        0.0165
     24 C         142.4627  141.5401  165.8543 C.ar    1  UNL1       -0.0002
     25 C         142.8986  141.4681  167.2878 C.ar    1  UNL1        0.0101
     26 C         142.4849  140.3052  168.1401 C.ar    1  UNL1        0.0684
     27 C         141.6353  139.2142  167.5590 C.ar    1  UNL1        0.0101
     28 C         141.1994  139.2861  166.1255 C.ar    1  UNL1       -0.0002
     29 C         142.9208  140.2333  169.5735 C.1     1  UNL1        0.1004
     30 N         143.3568  140.1615  171.0070 N.1     1  UNL1       -0.1908
     31 C         141.1663  140.9564  157.9659 C.3     1  UNL1        0.2525
     32 O         140.7989  140.1525  159.1778 O.3     1  UNL1       -0.4700
     33 C         137.8482  142.4899  164.1661 C.3     1  UNL1        0.0751
     34 N         137.8618  143.9898  164.1654 N.3     1  UNL1       -0.2702
     35 C         137.9457  144.7398  165.4617 C.3     1  UNL1        0.0897
     36 C         137.7916  144.7399  162.8683 C.3     1  UNL1        0.0897
@<TRIPOS>BOND
     1    31    32    1
     2    32     1    1
     3     1     2   ar
     4     2     3   ar
     5     3     4   ar
     6     4     5   ar
     7     5     6   ar
     8     6     7    1
     9     7     8    1
    10     7     9    1
    11     9    10    1
    12     9    11    1
    13    11    33    1
    14    33    34    1
    15    34    35    1
    16    34    36    1
    17    11    12    1
    18    12    17    1
    19    17    18   ar
    20    18    19   ar
    21    19    20   ar
    22    20    21   ar
    23    21    22   ar
    24    12    13    1
    25    13    23    1
    26    23    24   ar
    27    24    25   ar
    28    25    26   ar
    29    26    29    1
    30    29    30    3
    31    26    27   ar
    32    27    28   ar
    33    13    14    1
    34     6     1   ar
    35    13     7    1
    36    28    23   ar
    37    14     5    1
    38    22    17   ar
    39     8    15    1
    40    10    16    1
@<TRIPOS>MOLECULE
*****
 36 40 0 0 0
SMALL
GASTEIGER

@<TRIPOS>ATOM
      1 C         141.7736  141.3161  169.3932 C.ar    1  UNL1        0.1591
      2 C         140.9280  140.6540  170.4404 C.ar    1  UNL1        0.1356
      3 N         139.6618  139.9519  170.0483 N.ar    1  UNL1       -0.2360
      4 C         139.2411  139.9118  168.6091 C.ar    1  UNL1        0.1356
      5 C         140.0867  140.5739  167.5619 C.ar    1  UNL1        0.1592
      6 C         141.3529  141.2760  167.9540 C.ar    1  UNL1        0.0787
      7 C         141.9775  141.8345  166.7098 C.3     1  UNL1        0.1743
      8 O         142.8577  142.1915  167.8708 O.3     1  UNL1       -0.3765
      9 C         143.1462  142.6136  166.1831 C.3     1  UNL1        0.1444
     10 O         144.2745  143.1704  166.9995 O.3     1  UNL1       -0.3815
     11 C         142.9881  142.7382  164.6966 C.3     1  UNL1        0.0535
     12 C         141.7219  142.0360  164.3046 C.3     1  UNL1        0.0694
     13 C         141.0973  141.4776  165.5488 C.3     1  UNL1        0.1835
     14 O         139.9287  140.6985  166.0755 O.3     1  UNL1       -0.4740
     15 H         142.4727  141.8397  168.6886 H       1  UNL1        0.2109
     16 H         144.1370  142.9499  167.9341 H       1  UNL1        0.2105
     17 C         141.1761  141.9139  162.9128 C.ar    1  UNL1       -0.0186
     18 C         141.5671  140.7481  162.0536 C.ar    1  UNL1       -0.0041
     19 C         141.0213  140.6259  160.6617 C.ar    1  UNL1       -0.0003
     20 C         140.0845  141.6694  160.1292 C.ar    1  UNL1       -0.0000
     21 C         139.6936  142.8351  160.9885 C.ar    1  UNL1       -0.0003
     22 C         140.2394  142.9573  162.3803 C.ar    1  UNL1       -0.0041
     23 C         140.2171  141.1206  164.3878 C.ar    1  UNL1        0.0165
     24 C         140.4444  139.8403  163.6401 C.ar    1  UNL1       -0.0002
     25 C         139.5641  139.4834  162.4791 C.ar    1  UNL1        0.0101
     26 C         138.4567  140.4069  162.0659 C.ar    1  UNL1        0.0684
     27 C         138.2294  141.6872  162.8135 C.ar    1  UNL1        0.0101
     28 C         139.1097  142.0441  163.9746 C.ar    1  UNL1       -0.0002
     29 C         137.5765  140.0499  160.9049 C.1     1  UNL1        0.1004
     30 N         136.6964  139.6930  159.7439 N.1     1  UNL1       -0.1908
     31 C         142.9852  143.2146  170.6882 C.3     1  UNL1        0.2525
     32 O         143.0398  142.0182  169.7852 O.3     1  UNL1       -0.4700
     33 C         143.9309  143.4414  163.7657 C.3     1  UNL1        0.0751
     34 N         144.8005  142.6464  162.8373 N.3     1  UNL1       -0.2702
     35 C         144.6614  142.8125  161.3530 C.3     1  UNL1        0.0897
     36 C         145.8091  141.6854  163.3932 C.3     1  UNL1        0.0897
@<TRIPOS>BOND
     1    31    32    1
     2    32     1    1
     3     1     2   ar
     4     2     3   ar
     5     3     4   ar
     6     4     5   ar
     7     5     6   ar
     8     6     7    1
     9     7     8    1
    10     7     9    1
    11     9    10    1
    12     9    11    1
    13    11    33    1
    14    33    34    1
    15    34    35    1
    16    34    36    1
    17    11    12    1
    18    12    17    1
    19    17    18   ar
    20    18    19   ar
    21    19    20   ar
    22    20    21   ar
    23    21    22   ar
    24    12    13    1
    25    13    23    1
    26    23    24   ar
    27    24    25   ar
    28    25    26   ar
    29    26    29    1
    30    29    30    3
    31    26    27   ar
    32    27    28   ar
    33    13    14    1
    34     6     1   ar
    35    13     7    1
    36    28    23   ar
    37    14     5    1
    38    22    17   ar
    39     8    15    1
    40    10    16    1
@<TRIPOS>MOLECULE
*****
 36 40 0 0 0
SMALL
GASTEIGER

@<TRIPOS>ATOM
      1 C         139.3494  143.7876  157.2041 C.ar    1  UNL1        0.1591
      2 C         138.4043  143.1890  156.2049 C.ar    1  UNL1        0.1356
      3 N         137.4750  142.0866  156.6185 N.ar    1  UNL1       -0.2360
      4 C         137.4907  141.5829  158.0312 C.ar    1  UNL1        0.1356
      5 C         138.4357  142.1815  159.0304 C.ar    1  UNL1        0.1592
      6 C         139.3651  143.2839  158.6168 C.ar    1  UNL1        0.0787
      7 C         140.1798  143.6766  159.8135 C.3     1  UNL1        0.1743
      8 O         140.6057  144.5363  158.6603 O.3     1  UNL1       -0.3765
      9 C         141.2578  144.6007  160.2974 C.3     1  UNL1        0.1444
     10 O         141.9702  145.6322  159.4738 O.3     1  UNL1       -0.3815
     11 C         141.4981  144.3122  161.7497 C.3     1  UNL1        0.0535
     12 C         140.5687  143.2098  162.1633 C.3     1  UNL1        0.0694
     13 C         139.7540  142.8170  160.9666 C.3     1  UNL1        0.1835
     14 O         138.6761  141.8930  160.4827 O.3     1  UNL1       -0.4740
     15 H         140.0908  144.2995  157.8731 H       1  UNL1        0.2109
     16 H         141.6271  145.6150  158.5667 H       1  UNL1        0.2105
     17 C         140.4712  142.6062  163.5330 C.ar    1  UNL1       -0.0186
     18 C         139.5311  143.1910  164.5450 C.ar    1  UNL1       -0.0041
     19 C         139.4335  142.5874  165.9148 C.ar    1  UNL1       -0.0003
     20 C         140.2760  141.3990  166.2725 C.ar    1  UNL1       -0.0000
     21 C         141.2162  140.8142  165.2603 C.ar    1  UNL1       -0.0003
     22 C         141.3137  141.4179  163.8906 C.ar    1  UNL1       -0.0041
     23 C         139.3282  141.9574  162.1198 C.ar    1  UNL1        0.0165
     24 C         140.0103  140.6449  162.3688 C.ar    1  UNL1       -0.0002
     25 C         139.5843  139.7854  163.5220 C.ar    1  UNL1        0.0101
     26 C         138.4765  140.2383  164.4261 C.ar    1  UNL1        0.0684
     27 C         137.7944  141.5508  164.1771 C.ar    1  UNL1        0.0101
     28 C         138.2203  142.4104  163.0239 C.ar    1  UNL1       -0.0002
     29 C         138.0507  139.3787  165.5793 C.1     1  UNL1        0.1004
     30 N         137.6248  138.5191  166.7324 N.1     1  UNL1       -0.1908
     31 C         139.7362  146.1148  156.1158 C.3     1  UNL1        0.2525
     32 O         140.2788  144.8900  156.7905 O.3     1  UNL1       -0.4700
     33 C         142.4932  145.0045  162.6332 C.3     1  UNL1        0.0751
     34 N         143.6873  144.2566  163.1478 N.3     1  UNL1       -0.2702
     35 C         144.5229  143.4396  162.2076 C.3     1  UNL1        0.0897
     36 C         144.0457  144.3257  164.6027 C.3     1  UNL1        0.0897
@<TRIPOS>BOND
     1    31    32    1
     2    32     1    1
     3     1     2   ar
     4     2     3   ar
     5     3     4   ar
     6     4     5   ar
     7     5     6   ar
     8     6     7    1
     9     7     8    1
    10     7     9    1
    11     9    10    1
    12     9    11    1
    13    11    33    1
    14    33    34    1
    15    34    35    1
    16    34    36    1
    17    11    12    1
    18    12    17    1
    19    17    18   ar
    20    18    19   ar
    21    19    20   ar
    22    20    21   ar
    23    21    22   ar
    24    12    13    1
    25    13    23    1
    26    23    24   ar
    27    24    25   ar
    28    25    26   ar
    29    26    29    1
    30    29    30    3
    31    26    27   ar
    32    27    28   ar
    33    13    14    1
    34     6     1   ar
    35    13     7    1
    36    28    23   ar
    37    14     5    1
    38    22    17   ar
    39     8    15    1
    40    10    16    1
@<TRIPOS>MOLECULE
*****
 36 40 0 0 0
SMALL
GASTEIGER

@<TRIPOS>ATOM
      1 C         141.1305  139.6399  158.4108 C.ar    1  UNL1        0.1591
      2 C         142.0533  138.6575  157.7525 C.ar    1  UNL1        0.1356
      3 N         142.9934  137.8374  158.5853 N.ar    1  UNL1       -0.2360
      4 C         143.0108  137.9996  160.0764 C.ar    1  UNL1        0.1356
      5 C         142.0880  138.9820  160.7347 C.ar    1  UNL1        0.1592
      6 C         141.1478  139.8021  159.9019 C.ar    1  UNL1        0.0787
      7 C         140.3602  140.6841  160.8248 C.3     1  UNL1        0.1743
      8 O         139.9068  140.9591  159.4216 O.3     1  UNL1       -0.3765
      9 C         139.2923  141.7361  160.8804 C.3     1  UNL1        0.1444
     10 O         138.5597  142.3118  159.7050 O.3     1  UNL1       -0.3815
     11 C         139.0857  142.1111  162.3181 C.3     1  UNL1        0.0535
     12 C         140.0258  141.2910  163.1508 C.3     1  UNL1        0.0694
     13 C         140.8135  140.4090  162.2279 C.3     1  UNL1        0.1835
     14 O         141.8813  139.3571  162.1722 O.3     1  UNL1       -0.4740
     15 H         140.4038  140.3986  158.8054 H       1  UNL1        0.2109
     16 H         138.8820  141.8982  158.8890 H       1  UNL1        0.2105
     17 C         140.1555  141.3436  164.6443 C.ar    1  UNL1       -0.0186
     18 C         139.3191  140.4408  165.5019 C.ar    1  UNL1       -0.0041
     19 C         139.4487  140.4934  166.9954 C.ar    1  UNL1       -0.0003
     20 C         140.4148  141.4486  167.6312 C.ar    1  UNL1       -0.0000
     21 C         141.2513  142.3513  166.7735 C.ar    1  UNL1       -0.0003
     22 C         141.1216  142.2987  165.2800 C.ar    1  UNL1       -0.0041
     23 C         141.2668  140.1340  163.6311 C.ar    1  UNL1        0.0165
     24 C         140.5836  139.0763  164.4463 C.ar    1  UNL1       -0.0002
     25 C         141.0370  138.8014  165.8495 C.ar    1  UNL1        0.0101
     26 C         142.1735  139.5841  166.4374 C.ar    1  UNL1        0.0684
     27 C         142.8567  140.6417  165.6223 C.ar    1  UNL1        0.0101
     28 C         142.4033  140.9167  164.2190 C.ar    1  UNL1       -0.0002
     29 C         142.6268  139.3091  167.8406 C.1     1  UNL1        0.1004
     30 N         143.0801  139.0341  169.2437 N.1     1  UNL1       -0.1908
     31 C         139.2326  139.7838  156.6424 C.3     1  UNL1        0.2525
     32 O         140.1903  140.4600  157.5780 O.3     1  UNL1       -0.4700
     33 C         138.1101  143.1278  162.8325 C.3     1  UNL1        0.0751
     34 N         138.6076  144.4217  163.4057 N.3     1  UNL1       -0.2702
     35 C         139.2681  145.4318  162.5150 C.3     1  UNL1        0.0897
     36 C         138.4445  144.7054  164.8695 C.3     1  UNL1        0.0897
@<TRIPOS>BOND
     1    31    32    1
     2    32     1    1
     3     1     2   ar
     4     2     3   ar
     5     3     4   ar
     6     4     5   ar
     7     5     6   ar
     8     6     7    1
     9     7     8    1
    10     7     9    1
    11     9    10    1
    12     9    11    1
    13    11    33    1
    14    33    34    1
    15    34    35    1
    16    34    36    1
    17    11    12    1
    18    12    17    1
    19    17    18   ar
    20    18    19   ar
    21    19    20   ar
    22    20    21   ar
    23    21    22   ar
    24    12    13    1
    25    13    23    1
    26    23    24   ar
    27    24    25   ar
    28    25    26   ar
    29    26    29    1
    30    29    30    3
    31    26    27   ar
    32    27    28   ar
    33    13    14    1
    34     6     1   ar
    35    13     7    1
    36    28    23   ar
    37    14     5    1
    38    22    17   ar
    39     8    15    1
    40    10    16    1
@<TRIPOS>MOLECULE
*****
 36 40 0 0 0
SMALL
GASTEIGER

@<TRIPOS>ATOM
      1 C         140.0128  140.5141  168.6597 C.ar    1  UNL1        0.1591
      2 C         138.8140  139.8763  169.2969 C.ar    1  UNL1        0.1356
      3 N         137.8499  139.0886  168.4603 N.ar    1  UNL1       -0.2360
      4 C         138.0845  138.9388  166.9863 C.ar    1  UNL1        0.1356
      5 C         139.2832  139.5767  166.3491 C.ar    1  UNL1        0.1592
      6 C         140.2474  140.3643  167.1858 C.ar    1  UNL1        0.0787
      7 C         141.3324  140.8756  166.2851 C.3     1  UNL1        0.1743
      8 O         141.6260  141.3473  167.6785 O.3     1  UNL1       -0.3765
      9 C         142.5989  141.6785  166.2455 C.3     1  UNL1        0.1444
     10 O         143.2601  142.3405  167.4178 O.3     1  UNL1       -0.3815
     11 C         143.0880  141.7031  164.8277 C.3     1  UNL1        0.0535
     12 C         142.1238  140.9154  163.9910 C.3     1  UNL1        0.0694
     13 C         141.0388  140.4041  164.8917 C.3     1  UNL1        0.1835
     14 O         139.7724  139.6012  164.9313 O.3     1  UNL1       -0.4740
     15 H         140.9356  141.0277  168.2802 H       1  UNL1        0.2109
     16 H         142.7411  142.1714  168.2197 H       1  UNL1        0.2105
     17 C         142.2266  140.6804  162.5131 C.ar    1  UNL1       -0.0186
     18 C         141.5765  141.6342  161.5551 C.ar    1  UNL1       -0.0041
     19 C         141.6793  141.3992  160.0771 C.ar    1  UNL1       -0.0003
     20 C         142.4321  140.2104  159.5573 C.ar    1  UNL1       -0.0000
     21 C         143.0822  139.2567  160.5154 C.ar    1  UNL1       -0.0003
     22 C         142.9794  139.4917  161.9933 C.ar    1  UNL1       -0.0041
     23 C         140.7453  139.9325  163.4984 C.ar    1  UNL1        0.0165
     24 C         139.9098  140.7759  162.5815 C.ar    1  UNL1       -0.0002
     25 C         139.6163  140.3042  161.1882 C.ar    1  UNL1        0.0101
     26 C         140.1583  138.9892  160.7117 C.ar    1  UNL1        0.0684
     27 C         140.9937  138.1458  161.6285 C.ar    1  UNL1        0.0101
     28 C         141.2873  138.6175  163.0219 C.ar    1  UNL1       -0.0002
     29 C         139.8647  138.5176  159.3183 C.1     1  UNL1        0.1004
     30 N         139.5712  138.0460  157.9250 N.1     1  UNL1       -0.1908
     31 C         140.4775  142.4159  170.3677 C.3     1  UNL1        0.2525
     32 O         140.9770  141.3018  169.4964 O.3     1  UNL1       -0.4700
     33 C         144.3242  142.3940  164.3334 C.3     1  UNL1        0.0751
     34 N         144.2067  143.6035  163.4541 N.3     1  UNL1       -0.2702
     35 C         143.6947  144.8951  164.0196 C.3     1  UNL1        0.0897
     36 C         144.6011  143.5216  162.0092 C.3     1  UNL1        0.0897
@<TRIPOS>BOND
     1    31    32    1
     2    32     1    1
     3     1     2   ar
     4     2     3   ar
     5     3     4   ar
     6     4     5   ar
     7     5     6   ar
     8     6     7    1
     9     7     8    1
    10     7     9    1
    11     9    10    1
    12     9    11    1
    13    11    33    1
    14    33    34    1
    15    34    35    1
    16    34    36    1
    17    11    12    1
    18    12    17    1
    19    17    18   ar
    20    18    19   ar
    21    19    20   ar
    22    20    21   ar
    23    21    22   ar
    24    12    13    1
    25    13    23    1
    26    23    24   ar
    27    24    25   ar
    28    25    26   ar
    29    26    29    1
    30    29    30    3
    31    26    27   ar
    32    27    28   ar
    33    13    14    1
    34     6     1   ar
    35    13     7    1
    36    28    23   ar
    37    14     5    1
    38    22    17   ar
    39     8    15    1
    40    10    16    1
