@<TRIPOS>MOLECULE
*****
 42 45 0 0 0
SMALL
GASTEIGER

@<TRIPOS>ATOM
      1 C         140.5034  142.2767  163.3528 C.3     1  UNL1        0.0823
      2 C         141.2549  142.3087  164.6506 C.ar    1  UNL1        0.0375
      3 C         140.5750  141.8927  165.9213 C.ar    1  UNL1        0.0023
      4 C         141.3264  141.9246  167.2191 C.ar    1  UNL1        0.0181
      5 C         140.6465  141.5086  168.4898 C.ar    1  UNL1        0.0082
      6 C         141.3980  141.5406  169.7877 C.ar    1  UNL1        0.0347
      7 BR        140.7181  141.1246  171.0584 Br      1  UNL1       -0.0490
      8 C         142.8293  141.9885  169.8148 C.ar    1  UNL1        0.0082
      9 C         143.5091  142.4045  168.5441 C.ar    1  UNL1        0.0197
     10 C         142.7577  142.3726  167.2463 C.ar    1  UNL1        0.0844
     11 N         143.4376  142.7886  165.9755 N.ar    1  UNL1       -0.2119
     12 C         142.6861  142.7566  164.6777 C.ar    1  UNL1        0.2211
     13 O         143.3660  143.1726  163.4070 O.3     1  UNL1       -0.4563
     14 C         144.8127  142.8425  163.1876 C.3     1  UNL1        0.2542
     15 C         140.9738  145.0977  160.6013 C.ar    1  UNL1        0.1577
     16 C         139.9046  146.0690  161.0055 C.ar    1  UNL1        0.1388
     17 N         139.0350  145.7762  162.1922 N.ar    1  UNL1       -0.2072
     18 C         139.2346  144.5121  162.9746 C.ar    1  UNL1        0.2213
     19 C         140.3038  143.5408  162.5704 C.ar    1  UNL1        0.0405
     20 C         141.1733  143.8336  161.3838 C.ar    1  UNL1        0.0393
     21 C         141.2244  145.5975  158.0642 C.3     1  UNL1        0.2525
     22 O         141.8433  145.3905  159.4147 O.3     1  UNL1       -0.4699
     23 O         138.3650  144.2193  164.1612 O.3     1  UNL1       -0.4563
     24 C         138.5860  144.9511  165.4518 C.3     1  UNL1        0.2542
     25 C         139.9515  140.9806  162.8374 C.3     1  UNL1        0.1163
     26 O         138.5582  141.4678  163.1040 O.3     1  UNL1       -0.3820
     27 H         138.3685  141.4014  164.0530 H       1  UNL1        0.2107
     28 C         141.3449  140.4934  162.5707 C.ar    1  UNL1        0.0117
     29 C         142.1180  139.8022  163.6545 C.ar    1  UNL1        0.0559
     30 C         143.5114  139.3149  163.3879 C.ar    1  UNL1        0.2272
     31 N         144.1317  139.5189  162.0375 N.ar    1  UNL1       -0.1767
     32 C         143.3586  140.2101  160.9537 C.ar    1  UNL1        0.2272
     33 C         141.9652  140.6974  161.2204 C.ar    1  UNL1        0.0559
     34 O         144.2845  138.6237  164.4717 O.3     1  UNL1       -0.4561
     35 C         143.7140  138.5282  165.8557 C.3     1  UNL1        0.2542
     36 O         143.9789  140.4142  159.6033 O.3     1  UNL1       -0.4561
     37 C         143.8834  141.7502  158.9282 C.3     1  UNL1        0.2542
     38 C         139.3997  139.6845  162.3220 C.3     1  UNL1        0.0491
     39 C         138.4207  138.9046  163.1487 C.3     1  UNL1        0.0750
     40 N         138.7567  138.5415  164.5648 N.3     1  UNL1       -0.2702
     41 C         138.0987  139.2663  165.7013 C.3     1  UNL1        0.0897
     42 C         139.7508  137.4534  164.8444 C.3     1  UNL1        0.0897
@<TRIPOS>BOND
     1    21    22    1
     2    22    15    1
     3    15    16   ar
     4    16    17   ar
     5    17    18   ar
     6    18    23    1
     7    23    24    1
     8    18    19   ar
     9     1    19    1
    10     1     2    1
    11     2     3   ar
    12     3     4   ar
    13     4     5   ar
    14     5     6   ar
    15     6     7    1
    16     6     8   ar
    17     8     9   ar
    18     9    10   ar
    19    10    11   ar
    20    11    12   ar
    21    12    13    1
    22    13    14    1
    23     1    25    1
    24    25    26    1
    25    25    38    1
    26    38    39    1
    27    39    40    1
    28    40    41    1
    29    40    42    1
    30    25    28    1
    31    28    29   ar
    32    29    30   ar
    33    30    34    1
    34    34    35    1
    35    30    31   ar
    36    31    32   ar
    37    32    36    1
    38    36    37    1
    39    32    33   ar
    40    19    20   ar
    41    20    15   ar
    42    12     2   ar
    43    33    28   ar
    44    10     4   ar
    45    26    27    1
@<TRIPOS>MOLECULE
*****
 42 45 0 0 0
SMALL
GASTEIGER

@<TRIPOS>ATOM
      1 C         140.5399  142.2153  163.3363 C.3     1  UNL1        0.0823
      2 C         141.2879  142.2644  164.6356 C.ar    1  UNL1        0.0375
      3 C         140.6134  141.8384  165.9059 C.ar    1  UNL1        0.0023
      4 C         141.3613  141.8875  167.2052 C.ar    1  UNL1        0.0181
      5 C         140.6868  141.4614  168.4754 C.ar    1  UNL1        0.0082
      6 C         141.4348  141.5106  169.7747 C.ar    1  UNL1        0.0347
      7 BR        140.7602  141.0845  171.0450 Br      1  UNL1       -0.0490
      8 C         142.8572  141.9857  169.8038 C.ar    1  UNL1        0.0082
      9 C         143.5317  142.4118  168.5335 C.ar    1  UNL1        0.0197
     10 C         142.7838  142.3627  167.2343 C.ar    1  UNL1        0.0844
     11 N         143.4583  142.7887  165.9640 N.ar    1  UNL1       -0.2119
     12 C         142.7103  142.7396  164.6647 C.ar    1  UNL1        0.2211
     13 O         143.3848  143.1656  163.3944 O.3     1  UNL1       -0.4563
     14 C         144.8055  142.7645  163.1286 C.3     1  UNL1        0.2542
     15 C         141.0233  144.9822  160.5327 C.ar    1  UNL1        0.1577
     16 C         139.9673  145.9721  160.9263 C.ar    1  UNL1        0.1388
     17 N         139.1021  145.7097  162.1233 N.ar    1  UNL1       -0.2072
     18 C         139.2930  144.4574  162.9266 C.ar    1  UNL1        0.2213
     19 C         140.3490  143.4675  162.5330 C.ar    1  UNL1        0.0405
     20 C         141.2142  143.7299  161.3361 C.ar    1  UNL1        0.0393
     21 C         142.3730  144.1004  158.4954 C.3     1  UNL1        0.2525
     22 O         141.8885  145.2445  159.3357 O.3     1  UNL1       -0.4699
     23 O         138.4279  144.1951  164.1235 O.3     1  UNL1       -0.4563
     24 C         138.6756  144.9349  165.4046 C.3     1  UNL1        0.2542
     25 C         139.9828  140.9138  162.8404 C.3     1  UNL1        0.1163
     26 O         138.5903  141.4260  163.0606 O.3     1  UNL1       -0.3820
     27 H         138.3768  141.3863  164.0060 H       1  UNL1        0.2107
     28 C         141.3753  140.4017  162.6202 C.ar    1  UNL1        0.0117
     29 C         142.0037  140.4975  161.2616 C.ar    1  UNL1        0.0559
     30 C         143.3962  139.9853  161.0414 C.ar    1  UNL1        0.2272
     31 N         144.1604  139.3773  162.1799 N.ar    1  UNL1       -0.1767
     32 C         143.5321  139.2815  163.5386 C.ar    1  UNL1        0.2272
     33 C         142.1396  139.7937  163.7587 C.ar    1  UNL1        0.0559
     34 O         144.0245  140.0811  159.6827 O.3     1  UNL1       -0.4561
     35 C         143.1835  140.4291  158.4904 C.3     1  UNL1        0.2542
     36 O         144.2964  138.6734  164.6772 O.3     1  UNL1       -0.4561
     37 C         143.6186  138.4381  165.9945 C.3     1  UNL1        0.2542
     38 C         139.4257  139.6124  162.3445 C.3     1  UNL1        0.0491
     39 C         138.4410  138.8506  163.1813 C.3     1  UNL1        0.0750
     40 N         138.7696  138.5134  164.6054 N.3     1  UNL1       -0.2702
     41 C         139.7763  137.4440  164.9099 C.3     1  UNL1        0.0897
     42 C         138.0915  139.2458  165.7252 C.3     1  UNL1        0.0897
@<TRIPOS>BOND
     1    21    22    1
     2    22    15    1
     3    15    16   ar
     4    16    17   ar
     5    17    18   ar
     6    18    23    1
     7    23    24    1
     8    18    19   ar
     9     1    19    1
    10     1     2    1
    11     2     3   ar
    12     3     4   ar
    13     4     5   ar
    14     5     6   ar
    15     6     7    1
    16     6     8   ar
    17     8     9   ar
    18     9    10   ar
    19    10    11   ar
    20    11    12   ar
    21    12    13    1
    22    13    14    1
    23     1    25    1
    24    25    26    1
    25    25    38    1
    26    38    39    1
    27    39    40    1
    28    40    41    1
    29    40    42    1
    30    25    28    1
    31    28    29   ar
    32    29    30   ar
    33    30    34    1
    34    34    35    1
    35    30    31   ar
    36    31    32   ar
    37    32    36    1
    38    36    37    1
    39    32    33   ar
    40    19    20   ar
    41    20    15   ar
    42    12     2   ar
    43    33    28   ar
    44    10     4   ar
    45    26    27    1
@<TRIPOS>MOLECULE
*****
 42 45 0 0 0
SMALL
GASTEIGER

@<TRIPOS>ATOM
      1 C         141.6361  140.6670  163.5524 C.3     1  UNL1        0.0823
      2 C         141.8323  140.5864  165.0374 C.ar    1  UNL1        0.0375
      3 C         141.0074  141.4441  165.9506 C.ar    1  UNL1        0.0023
      4 C         141.2036  141.3635  167.4355 C.ar    1  UNL1        0.0181
      5 C         140.3787  142.2213  168.3486 C.ar    1  UNL1        0.0082
      6 C         140.5749  142.1406  169.8336 C.ar    1  UNL1        0.0347
      7 BR        139.7500  142.9984  170.7467 Br      1  UNL1       -0.0490
      8 C         141.5960  141.2023  170.4053 C.ar    1  UNL1        0.0082
      9 C         142.4209  140.3446  169.4922 C.ar    1  UNL1        0.0197
     10 C         142.2247  140.4252  168.0073 C.ar    1  UNL1        0.0844
     11 N         143.0496  139.5675  167.0941 N.ar    1  UNL1       -0.2119
     12 C         142.8534  139.6481  165.6091 C.ar    1  UNL1        0.2211
     13 O         143.6783  138.7904  164.6960 O.3     1  UNL1       -0.4563
     14 C         145.0688  139.2122  164.3239 C.3     1  UNL1        0.2542
     15 C         143.9009  143.6489  162.2375 C.ar    1  UNL1        0.1577
     16 C         144.5225  143.0199  161.0260 C.ar    1  UNL1        0.1388
     17 N         144.1819  141.6065  160.6565 N.ar    1  UNL1       -0.2072
     18 C         143.2198  140.8222  161.4987 C.ar    1  UNL1        0.2213
     19 C         142.5982  141.4513  162.7103 C.ar    1  UNL1        0.0405
     20 C         142.9387  142.8646  163.0797 C.ar    1  UNL1        0.0393
     21 C         143.8054  145.6173  163.9305 C.3     1  UNL1        0.2525
     22 O         144.2414  145.0623  162.6070 O.3     1  UNL1       -0.4699
     23 O         142.8793  139.4089  161.1293 O.3     1  UNL1       -0.4563
     24 C         143.9711  138.3950  160.9565 C.3     1  UNL1        0.2542
     25 C         140.4778  139.9634  162.9097 C.3     1  UNL1        0.1163
     26 O         141.0966  138.6387  163.2447 O.3     1  UNL1       -0.3820
     27 H         141.8149  138.4503  162.6206 H       1  UNL1        0.2107
     28 C         139.8589  141.2881  162.5747 C.ar    1  UNL1        0.0117
     29 C         139.2344  142.1190  163.6561 C.ar    1  UNL1        0.0559
     30 C         138.6155  143.4437  163.3211 C.ar    1  UNL1        0.2272
     31 N         138.6213  143.9375  161.9047 N.ar    1  UNL1       -0.1767
     32 C         139.2458  143.1065  160.8234 C.ar    1  UNL1        0.2272
     33 C         139.8647  141.7818  161.1583 C.ar    1  UNL1        0.0559
     34 O         137.9909  144.2746  164.4025 O.3     1  UNL1       -0.4561
     35 C         138.8410  144.8317  165.5057 C.3     1  UNL1        0.2542
     36 O         139.2516  143.6003  159.4069 O.3     1  UNL1       -0.4561
     37 C         138.6214  142.7768  158.3230 C.3     1  UNL1        0.2542
     38 C         139.3194  139.2597  162.2669 C.3     1  UNL1        0.0491
     39 C         138.2619  138.6233  163.1194 C.3     1  UNL1        0.0750
     40 N         138.4840  138.4614  164.5940 N.3     1  UNL1       -0.2702
     41 C         138.0648  139.5479  165.5393 C.3     1  UNL1        0.0897
     42 C         139.1255  137.2130  165.1232 C.3     1  UNL1        0.0897
@<TRIPOS>BOND
     1    21    22    1
     2    22    15    1
     3    15    16   ar
     4    16    17   ar
     5    17    18   ar
     6    18    23    1
     7    23    24    1
     8    18    19   ar
     9     1    19    1
    10     1     2    1
    11     2     3   ar
    12     3     4   ar
    13     4     5   ar
    14     5     6   ar
    15     6     7    1
    16     6     8   ar
    17     8     9   ar
    18     9    10   ar
    19    10    11   ar
    20    11    12   ar
    21    12    13    1
    22    13    14    1
    23     1    25    1
    24    25    26    1
    25    25    38    1
    26    38    39    1
    27    39    40    1
    28    40    41    1
    29    40    42    1
    30    25    28    1
    31    28    29   ar
    32    29    30   ar
    33    30    34    1
    34    34    35    1
    35    30    31   ar
    36    31    32   ar
    37    32    36    1
    38    36    37    1
    39    32    33   ar
    40    19    20   ar
    41    20    15   ar
    42    12     2   ar
    43    33    28   ar
    44    10     4   ar
    45    26    27    1
@<TRIPOS>MOLECULE
*****
 42 45 0 0 0
SMALL
GASTEIGER

@<TRIPOS>ATOM
      1 C         141.0858  140.5181  162.6853 C.3     1  UNL1        0.0823
      2 C         140.6827  140.3772  164.1233 C.ar    1  UNL1        0.0375
      3 C         140.8860  141.5191  165.0745 C.ar    1  UNL1        0.0023
      4 C         140.4829  141.3783  166.5124 C.ar    1  UNL1        0.0181
      5 C         140.6862  142.5201  167.4636 C.ar    1  UNL1        0.0082
      6 C         140.2830  142.3793  168.9016 C.ar    1  UNL1        0.0347
      7 BR        140.4863  143.5211  169.8528 Br      1  UNL1       -0.0490
      8 C         139.6766  141.0966  169.3882 C.ar    1  UNL1        0.0082
      9 C         139.4733  139.9547  168.4370 C.ar    1  UNL1        0.0197
     10 C         139.8764  140.0955  166.9991 C.ar    1  UNL1        0.0844
     11 N         139.6731  138.9537  166.0479 N.ar    1  UNL1       -0.2119
     12 C         140.0762  139.0946  164.6099 C.ar    1  UNL1        0.2211
     13 O         139.8729  137.9527  163.6587 O.3     1  UNL1       -0.4563
     14 C         138.5287  137.7290  163.0319 C.3     1  UNL1        0.2542
     15 C         138.7459  140.4757  159.4802 C.ar    1  UNL1        0.1577
     16 C         138.0570  141.8013  159.6146 C.ar    1  UNL1        0.1388
     17 N         138.3777  142.6992  160.7726 N.ar    1  UNL1       -0.2072
     18 C         139.3873  142.2715  161.7962 C.ar    1  UNL1        0.2213
     19 C         140.0762  140.9459  161.6617 C.ar    1  UNL1        0.0405
     20 C         139.7556  140.0480  160.5038 C.ar    1  UNL1        0.0393
     21 C         139.4930  139.2227  157.3304 C.3     1  UNL1        0.2525
     22 O         138.4252  139.5778  158.3222 O.3     1  UNL1       -0.4699
     23 O         139.7080  143.1694  162.9541 O.3     1  UNL1       -0.4563
     24 C         139.6775  144.6588  162.7792 C.3     1  UNL1        0.2542
     25 C         142.4986  140.2312  162.2709 C.3     1  UNL1        0.1163
     26 O         142.2287  138.7590  162.3700 O.3     1  UNL1       -0.3820
     27 H         142.2365  138.4909  163.3021 H       1  UNL1        0.2107
     28 C         142.7686  141.7034  162.1719 C.ar    1  UNL1        0.0117
     29 C         142.4908  142.4323  160.8907 C.ar    1  UNL1        0.0559
     30 C         142.7607  143.9045  160.7917 C.ar    1  UNL1        0.2272
     31 N         143.3084  144.6478  161.9738 N.ar    1  UNL1       -0.1767
     32 C         143.5862  143.9189  163.2550 C.ar    1  UNL1        0.2272
     33 C         143.3163  142.4467  163.3540 C.ar    1  UNL1        0.0559
     34 O         142.4828  144.6334  159.5104 O.3     1  UNL1       -0.4561
     35 C         141.1281  145.2287  159.2648 C.3     1  UNL1        0.2542
     36 O         144.1339  144.6621  164.4372 O.3     1  UNL1       -0.4561
     37 C         144.7575  143.9080  165.5741 C.3     1  UNL1        0.2542
     38 C         143.9114  139.9443  161.8566 C.3     1  UNL1        0.0491
     39 C         144.1910  138.8960  160.8207 C.3     1  UNL1        0.0750
     40 N         143.5644  138.9986  159.4617 N.3     1  UNL1       -0.2702
     41 C         143.8775  140.1693  158.5778 C.3     1  UNL1        0.0897
     42 C         142.6245  137.9304  158.9867 C.3     1  UNL1        0.0897
@<TRIPOS>BOND
     1    21    22    1
     2    22    15    1
     3    15    16   ar
     4    16    17   ar
     5    17    18   ar
     6    18    23    1
     7    23    24    1
     8    18    19   ar
     9     1    19    1
    10     1     2    1
    11     2     3   ar
    12     3     4   ar
    13     4     5   ar
    14     5     6   ar
    15     6     7    1
    16     6     8   ar
    17     8     9   ar
    18     9    10   ar
    19    10    11   ar
    20    11    12   ar
    21    12    13    1
    22    13    14    1
    23     1    25    1
    24    25    26    1
    25    25    38    1
    26    38    39    1
    27    39    40    1
    28    40    41    1
    29    40    42    1
    30    25    28    1
    31    28    29   ar
    32    29    30   ar
    33    30    34    1
    34    34    35    1
    35    30    31   ar
    36    31    32   ar
    37    32    36    1
    38    36    37    1
    39    32    33   ar
    40    19    20   ar
    41    20    15   ar
    42    12     2   ar
    43    33    28   ar
    44    10     4   ar
    45    26    27    1
@<TRIPOS>MOLECULE
*****
 42 45 0 0 0
SMALL
GASTEIGER

@<TRIPOS>ATOM
      1 C         141.8022  141.5786  162.5666 C.3     1  UNL1        0.0823
      2 C         141.4445  141.9259  163.9813 C.ar    1  UNL1        0.0375
      3 C         142.4858  141.8505  165.0583 C.ar    1  UNL1        0.0023
      4 C         142.1282  142.1978  166.4730 C.ar    1  UNL1        0.0181
      5 C         143.1695  142.1224  167.5500 C.ar    1  UNL1        0.0082
      6 C         142.8118  142.4697  168.9648 C.ar    1  UNL1        0.0347
      7 BR        143.8532  142.3944  170.0418 Br      1  UNL1       -0.0490
      8 C         141.4128  142.8924  169.3025 C.ar    1  UNL1        0.0082
      9 C         140.3714  142.9677  168.2255 C.ar    1  UNL1        0.0197
     10 C         140.7291  142.6205  166.8108 C.ar    1  UNL1        0.0844
     11 N         139.6877  142.6958  165.7338 N.ar    1  UNL1       -0.2119
     12 C         140.0455  142.3485  164.3191 C.ar    1  UNL1        0.2211
     13 O         139.0041  142.4239  163.2421 O.3     1  UNL1       -0.4563
     14 C         137.6024  141.9684  163.5209 C.3     1  UNL1        0.2542
     15 C         140.2604  143.3782  159.3831 C.ar    1  UNL1        0.1577
     16 C         141.1502  144.5813  159.2789 C.ar    1  UNL1        0.1388
     17 N         142.2573  144.7835  160.2707 N.ar    1  UNL1       -0.2072
     18 C         142.4747  143.7826  161.3665 C.ar    1  UNL1        0.2213
     19 C         141.5849  142.5795  161.4707 C.ar    1  UNL1        0.0405
     20 C         140.4778  142.3773  160.4791 C.ar    1  UNL1        0.0393
     21 C         139.2525  143.7818  157.0229 C.3     1  UNL1        0.2525
     22 O         139.1533  143.1760  158.3915 O.3     1  UNL1       -0.4699
     23 O         143.5818  143.9848  162.3582 O.3     1  UNL1       -0.4563
     24 C         143.4637  145.0505  163.4071 C.3     1  UNL1        0.2542
     25 C         142.3773  140.2304  162.2478 C.3     1  UNL1        0.1163
     26 O         143.7211  140.8571  162.0214 O.3     1  UNL1       -0.3820
     27 H         143.7342  141.2892  161.1531 H       1  UNL1        0.2107
     28 C         141.0334  139.6036  162.4741 C.ar    1  UNL1        0.0117
     29 C         139.9856  139.6683  161.4027 C.ar    1  UNL1        0.0559
     30 C         138.6418  139.0416  161.6291 C.ar    1  UNL1        0.2272
     31 N         138.3457  138.3502  162.9269 N.ar    1  UNL1       -0.1767
     32 C         139.3934  138.2855  163.9983 C.ar    1  UNL1        0.2272
     33 C         140.7373  138.9123  163.7719 C.ar    1  UNL1        0.0559
     34 O         137.5940  139.1063  160.5576 O.3     1  UNL1       -0.4561
     35 C         137.6868  140.1452  159.4796 C.3     1  UNL1        0.2542
     36 O         139.0974  137.5941  165.2962 O.3     1  UNL1       -0.4561
     37 C         138.1381  138.2091  166.2717 C.3     1  UNL1        0.2542
     38 C         142.9523  138.8822  161.9289 C.3     1  UNL1        0.0491
     39 C         143.9329  138.7321  160.8038 C.3     1  UNL1        0.0750
     40 N         143.4922  138.9638  159.3889 N.3     1  UNL1       -0.2702
     41 C         143.8933  140.2204  158.6746 C.3     1  UNL1        0.0897
     42 C         142.6502  137.9390  158.6882 C.3     1  UNL1        0.0897
@<TRIPOS>BOND
     1    21    22    1
     2    22    15    1
     3    15    16   ar
     4    16    17   ar
     5    17    18   ar
     6    18    23    1
     7    23    24    1
     8    18    19   ar
     9     1    19    1
    10     1     2    1
    11     2     3   ar
    12     3     4   ar
    13     4     5   ar
    14     5     6   ar
    15     6     7    1
    16     6     8   ar
    17     8     9   ar
    18     9    10   ar
    19    10    11   ar
    20    11    12   ar
    21    12    13    1
    22    13    14    1
    23     1    25    1
    24    25    26    1
    25    25    38    1
    26    38    39    1
    27    39    40    1
    28    40    41    1
    29    40    42    1
    30    25    28    1
    31    28    29   ar
    32    29    30   ar
    33    30    34    1
    34    34    35    1
    35    30    31   ar
    36    31    32   ar
    37    32    36    1
    38    36    37    1
    39    32    33   ar
    40    19    20   ar
    41    20    15   ar
    42    12     2   ar
    43    33    28   ar
    44    10     4   ar
    45    26    27    1
@<TRIPOS>MOLECULE
*****
 42 45 0 0 0
SMALL
GASTEIGER

@<TRIPOS>ATOM
      1 C         141.4156  140.5950  163.5456 C.3     1  UNL1        0.0823
      2 C         141.6554  140.4586  165.0201 C.ar    1  UNL1        0.0375
      3 C         140.8580  141.2806  165.9888 C.ar    1  UNL1        0.0023
      4 C         141.0978  141.1443  167.4632 C.ar    1  UNL1        0.0181
      5 C         140.3004  141.9663  168.4319 C.ar    1  UNL1        0.0082
      6 C         140.5403  141.8299  169.9064 C.ar    1  UNL1        0.0347
      7 BR        139.7429  142.6520  170.8751 Br      1  UNL1       -0.0490
      8 C         141.5774  140.8716  170.4120 C.ar    1  UNL1        0.0082
      9 C         142.3748  140.0495  169.4433 C.ar    1  UNL1        0.0197
     10 C         142.1350  140.1859  167.9689 C.ar    1  UNL1        0.0844
     11 N         142.9324  139.3639  167.0002 N.ar    1  UNL1       -0.2119
     12 C         142.6926  139.5002  165.5257 C.ar    1  UNL1        0.2211
     13 O         143.4900  138.6782  164.5570 O.3     1  UNL1       -0.4563
     14 C         144.9009  139.0664  164.2277 C.3     1  UNL1        0.2542
     15 C         143.8645  143.4045  162.1819 C.ar    1  UNL1        0.1577
     16 C         144.4221  142.7280  160.9648 C.ar    1  UNL1        0.1388
     17 N         143.9776  141.3405  160.6079 N.ar    1  UNL1       -0.2072
     18 C         142.9754  140.6295  161.4682 C.ar    1  UNL1        0.2213
     19 C         142.4177  141.3060  162.6853 C.ar    1  UNL1        0.0405
     20 C         142.8623  142.6934  163.0422 C.ar    1  UNL1        0.0393
     21 C         143.7265  145.4811  163.7369 C.3     1  UNL1        0.2525
     22 O         144.3090  144.7919  162.5388 O.3     1  UNL1       -0.4699
     23 O         142.5309  139.2421  161.1113 O.3     1  UNL1       -0.4563
     24 C         143.5489  138.1675  160.8687 C.3     1  UNL1        0.2542
     25 C         140.1735  140.0204  162.9315 C.3     1  UNL1        0.1163
     26 O         140.7084  138.6354  163.1457 O.3     1  UNL1       -0.3820
     27 H         141.3746  138.4378  162.4689 H       1  UNL1        0.2107
     28 C         139.6387  141.4053  162.7173 C.ar    1  UNL1        0.0117
     29 C         139.8202  142.0826  161.3914 C.ar    1  UNL1        0.0559
     30 C         139.2853  143.4676  161.1772 C.ar    1  UNL1        0.2272
     31 N         138.5690  144.1752  162.2890 N.ar    1  UNL1       -0.1767
     32 C         138.3875  143.4978  163.6149 C.ar    1  UNL1        0.2272
     33 C         138.9223  142.1129  163.8291 C.ar    1  UNL1        0.0559
     34 O         139.4668  144.1449  159.8511 O.3     1  UNL1       -0.4561
     35 C         140.8374  144.2711  159.2549 C.3     1  UNL1        0.2542
     36 O         137.6711  144.2054  164.7268 O.3     1  UNL1       -0.4561
     37 C         138.4446  145.0315  165.7113 C.3     1  UNL1        0.2542
     38 C         138.9315  139.4457  162.3174 C.3     1  UNL1        0.0491
     39 C         139.0363  138.5051  161.1536 C.3     1  UNL1        0.0750
     40 N         138.9797  139.0368  159.7521 N.3     1  UNL1       -0.2702
     41 C         137.9304  140.0390  159.3720 C.3     1  UNL1        0.0897
     42 C         139.9725  138.5663  158.7308 C.3     1  UNL1        0.0897
@<TRIPOS>BOND
     1    21    22    1
     2    22    15    1
     3    15    16   ar
     4    16    17   ar
     5    17    18   ar
     6    18    23    1
     7    23    24    1
     8    18    19   ar
     9     1    19    1
    10     1     2    1
    11     2     3   ar
    12     3     4   ar
    13     4     5   ar
    14     5     6   ar
    15     6     7    1
    16     6     8   ar
    17     8     9   ar
    18     9    10   ar
    19    10    11   ar
    20    11    12   ar
    21    12    13    1
    22    13    14    1
    23     1    25    1
    24    25    26    1
    25    25    38    1
    26    38    39    1
    27    39    40    1
    28    40    41    1
    29    40    42    1
    30    25    28    1
    31    28    29   ar
    32    29    30   ar
    33    30    34    1
    34    34    35    1
    35    30    31   ar
    36    31    32   ar
    37    32    36    1
    38    36    37    1
    39    32    33   ar
    40    19    20   ar
    41    20    15   ar
    42    12     2   ar
    43    33    28   ar
    44    10     4   ar
    45    26    27    1
@<TRIPOS>MOLECULE
*****
 42 45 0 0 0
SMALL
GASTEIGER

@<TRIPOS>ATOM
      1 C         141.4360  142.4953  162.4956 C.3     1  UNL1        0.0823
      2 C         141.8987  142.4068  163.9198 C.ar    1  UNL1        0.0375
      3 C         141.0450  141.7203  164.9444 C.ar    1  UNL1        0.0023
      4 C         141.5076  141.6318  166.3685 C.ar    1  UNL1        0.0181
      5 C         140.6539  140.9453  167.3932 C.ar    1  UNL1        0.0082
      6 C         141.1166  140.8568  168.8173 C.ar    1  UNL1        0.0347
      7 BR        140.2629  140.1703  169.8420 Br      1  UNL1       -0.0490
      8 C         142.4329  141.4548  169.2168 C.ar    1  UNL1        0.0082
      9 C         143.2866  142.1414  168.1921 C.ar    1  UNL1        0.0197
     10 C         142.8240  142.2298  166.7680 C.ar    1  UNL1        0.0844
     11 N         143.6777  142.9164  165.7434 N.ar    1  UNL1       -0.2119
     12 C         143.2150  143.0048  164.3192 C.ar    1  UNL1        0.2211
     13 O         144.0687  143.6914  163.2946 O.3     1  UNL1       -0.4563
     14 C         144.0134  145.1834  163.1502 C.3     1  UNL1        0.2542
     15 C         143.7442  140.1565  160.2703 C.ar    1  UNL1        0.1577
     16 C         144.1222  141.0990  159.1663 C.ar    1  UNL1        0.1388
     17 N         143.6047  142.5070  159.1721 N.ar    1  UNL1       -0.2072
     18 C         142.7093  142.9724  160.2818 C.ar    1  UNL1        0.2213
     19 C         142.3314  142.0299  161.3858 C.ar    1  UNL1        0.0405
     20 C         142.8488  140.6220  161.3801 C.ar    1  UNL1        0.0393
     21 C         143.8789  137.8045  161.3654 C.3     1  UNL1        0.2525
     22 O         144.2617  138.7486  160.2645 O.3     1  UNL1       -0.4699
     23 O         142.1919  144.3802  160.2876 O.3     1  UNL1       -0.4563
     24 C         141.3138  144.8612  159.1706 C.3     1  UNL1        0.2542
     25 C         140.0779  143.0492  162.1813 C.3     1  UNL1        0.1163
     26 O         140.5262  144.4064  162.6361 O.3     1  UNL1       -0.3820
     27 H         140.5337  144.4365  163.6056 H       1  UNL1        0.2107
     28 C         139.6296  141.6919  161.7265 C.ar    1  UNL1        0.0117
     29 C         139.3024  141.4551  160.2820 C.ar    1  UNL1        0.0559
     30 C         138.8541  140.0978  159.8272 C.ar    1  UNL1        0.2272
     31 N         138.7330  138.9773  160.8170 N.ar    1  UNL1       -0.1767
     32 C         139.0601  139.2141  162.2616 C.ar    1  UNL1        0.2272
     33 C         139.5084  140.5714  162.7164 C.ar    1  UNL1        0.0559
     34 O         138.5269  139.8611  158.3825 O.3     1  UNL1       -0.4561
     35 C         138.8226  140.9210  157.3631 C.3     1  UNL1        0.2542
     36 O         138.9390  138.0936  163.2515 O.3     1  UNL1       -0.4561
     37 C         138.8506  138.3949  164.7183 C.3     1  UNL1        0.2542
     38 C         138.7198  143.6030  161.8670 C.3     1  UNL1        0.0491
     39 C         137.9609  144.3663  162.9119 C.3     1  UNL1        0.0750
     40 N         138.0294  143.9413  164.3488 N.3     1  UNL1       -0.2702
     41 C         137.5615  142.5737  164.7495 C.3     1  UNL1        0.0897
     42 C         138.5658  144.8840  165.3849 C.3     1  UNL1        0.0897
@<TRIPOS>BOND
     1    21    22    1
     2    22    15    1
     3    15    16   ar
     4    16    17   ar
     5    17    18   ar
     6    18    23    1
     7    23    24    1
     8    18    19   ar
     9     1    19    1
    10     1     2    1
    11     2     3   ar
    12     3     4   ar
    13     4     5   ar
    14     5     6   ar
    15     6     7    1
    16     6     8   ar
    17     8     9   ar
    18     9    10   ar
    19    10    11   ar
    20    11    12   ar
    21    12    13    1
    22    13    14    1
    23     1    25    1
    24    25    26    1
    25    25    38    1
    26    38    39    1
    27    39    40    1
    28    40    41    1
    29    40    42    1
    30    25    28    1
    31    28    29   ar
    32    29    30   ar
    33    30    34    1
    34    34    35    1
    35    30    31   ar
    36    31    32   ar
    37    32    36    1
    38    36    37    1
    39    32    33   ar
    40    19    20   ar
    41    20    15   ar
    42    12     2   ar
    43    33    28   ar
    44    10     4   ar
    45    26    27    1
@<TRIPOS>MOLECULE
*****
 42 45 0 0 0
SMALL
GASTEIGER

@<TRIPOS>ATOM
      1 C         141.4483  142.4955  162.4984 C.3     1  UNL1        0.0823
      2 C         141.9220  142.4030  163.9187 C.ar    1  UNL1        0.0375
      3 C         141.0633  141.7389  164.9539 C.ar    1  UNL1        0.0023
      4 C         141.5369  141.6465  166.3741 C.ar    1  UNL1        0.0181
      5 C         140.6783  140.9823  167.4094 C.ar    1  UNL1        0.0082
      6 C         141.1520  140.8899  168.8296 C.ar    1  UNL1        0.0347
      7 BR        140.2934  140.2258  169.8649 Br      1  UNL1       -0.0490
      8 C         142.4842  141.4615  169.2146 C.ar    1  UNL1        0.0082
      9 C         143.3429  142.1257  168.1794 C.ar    1  UNL1        0.0197
     10 C         142.8693  142.2181  166.7592 C.ar    1  UNL1        0.0844
     11 N         143.7279  142.8823  165.7240 N.ar    1  UNL1       -0.2119
     12 C         143.2542  142.9747  164.3037 C.ar    1  UNL1        0.2211
     13 O         144.1128  143.6388  163.2684 O.3     1  UNL1       -0.4563
     14 C         144.0999  145.1323  163.1291 C.3     1  UNL1        0.2542
     15 C         143.6589  140.0872  160.2482 C.ar    1  UNL1        0.1577
     16 C         144.0714  141.0236  159.1514 C.ar    1  UNL1        0.1388
     17 N         143.6095  142.4506  159.1702 N.ar    1  UNL1       -0.2072
     18 C         142.7351  142.9412  160.2859 C.ar    1  UNL1        0.2213
     19 C         142.3226  142.0049  161.3827 C.ar    1  UNL1        0.0405
     20 C         142.7845  140.5779  161.3639 C.ar    1  UNL1        0.0393
     21 C         143.7294  137.7307  161.3396 C.3     1  UNL1        0.2525
     22 O         144.1208  138.6603  160.2294 O.3     1  UNL1       -0.4699
     23 O         142.2732  144.3682  160.3046 O.3     1  UNL1       -0.4563
     24 C         141.4038  144.8897  159.1991 C.3     1  UNL1        0.2542
     25 C         140.1002  143.0786  162.1938 C.3     1  UNL1        0.1163
     26 O         140.5756  144.4221  162.6619 O.3     1  UNL1       -0.3820
     27 H         140.5861  144.4415  163.6316 H       1  UNL1        0.2107
     28 C         139.6248  141.7351  161.7258 C.ar    1  UNL1        0.0117
     29 C         139.4756  140.6092  162.7056 C.ar    1  UNL1        0.0559
     30 C         139.0003  139.2657  162.2375 C.ar    1  UNL1        0.2272
     31 N         138.6741  139.0481  160.7897 N.ar    1  UNL1       -0.1767
     32 C         138.8233  140.1740  159.8099 C.ar    1  UNL1        0.2272
     33 C         139.2987  141.5175  160.2780 C.ar    1  UNL1        0.0559
     34 O         138.8510  138.1397  163.2174 O.3     1  UNL1       -0.4561
     35 C         138.8506  138.4226  164.6905 C.3     1  UNL1        0.2542
     36 O         138.4972  139.9565  158.3620 O.3     1  UNL1       -0.4561
     37 C         137.7504  141.0074  157.5953 C.3     1  UNL1        0.2542
     38 C         138.7521  143.6616  161.8893 C.3     1  UNL1        0.0491
     39 C         137.9873  144.3821  162.9599 C.3     1  UNL1        0.0750
     40 N         138.0376  143.8917  164.3766 N.3     1  UNL1       -0.2702
     41 C         138.6088  144.7662  165.4532 C.3     1  UNL1        0.0897
     42 C         137.5167  142.5267  164.7167 C.3     1  UNL1        0.0897
@<TRIPOS>BOND
     1    21    22    1
     2    22    15    1
     3    15    16   ar
     4    16    17   ar
     5    17    18   ar
     6    18    23    1
     7    23    24    1
     8    18    19   ar
     9     1    19    1
    10     1     2    1
    11     2     3   ar
    12     3     4   ar
    13     4     5   ar
    14     5     6   ar
    15     6     7    1
    16     6     8   ar
    17     8     9   ar
    18     9    10   ar
    19    10    11   ar
    20    11    12   ar
    21    12    13    1
    22    13    14    1
    23     1    25    1
    24    25    26    1
    25    25    38    1
    26    38    39    1
    27    39    40    1
    28    40    41    1
    29    40    42    1
    30    25    28    1
    31    28    29   ar
    32    29    30   ar
    33    30    34    1
    34    34    35    1
    35    30    31   ar
    36    31    32   ar
    37    32    36    1
    38    36    37    1
    39    32    33   ar
    40    19    20   ar
    41    20    15   ar
    42    12     2   ar
    43    33    28   ar
    44    10     4   ar
    45    26    27    1
@<TRIPOS>MOLECULE
*****
 42 45 0 0 0
SMALL
GASTEIGER

@<TRIPOS>ATOM
      1 C         141.3551  141.8042  163.7299 C.3     1  UNL1        0.0823
      2 C         141.7134  141.1236  165.0178 C.ar    1  UNL1        0.0375
      3 C         141.3443  141.7548  166.3275 C.ar    1  UNL1        0.0023
      4 C         141.7025  141.0742  167.6153 C.ar    1  UNL1        0.0181
      5 C         141.3334  141.7053  168.9251 C.ar    1  UNL1        0.0082
      6 C         141.6916  141.0247  170.2129 C.ar    1  UNL1        0.0347
      7 BR        141.3225  141.6559  171.5227 Br      1  UNL1       -0.0490
      8 C         142.4189  139.7131  170.1910 C.ar    1  UNL1        0.0082
      9 C         142.7880  139.0819  168.8812 C.ar    1  UNL1        0.0197
     10 C         142.4298  139.7625  167.5934 C.ar    1  UNL1        0.0844
     11 N         142.7989  139.1313  166.2837 N.ar    1  UNL1       -0.2119
     12 C         142.4406  139.8120  164.9958 C.ar    1  UNL1        0.2211
     13 O         142.8097  139.1808  163.6861 O.3     1  UNL1       -0.4563
     14 C         144.2533  139.0091  163.3167 C.3     1  UNL1        0.2542
     15 C         143.5285  141.7954  160.4093 C.ar    1  UNL1        0.1577
     16 C         144.5713  142.8182  160.7504 C.ar    1  UNL1        0.1388
     17 N         144.5421  143.5031  162.0846 N.ar    1  UNL1       -0.2072
     18 C         143.4700  143.1651  163.0778 C.ar    1  UNL1        0.2213
     19 C         142.4272  142.1423  162.7367 C.ar    1  UNL1        0.0405
     20 C         142.4564  141.4574  161.4026 C.ar    1  UNL1        0.0393
     21 C         143.3818  139.6233  158.9915 C.3     1  UNL1        0.2525
     22 O         143.5577  141.1106  159.0751 O.3     1  UNL1       -0.4699
     23 O         143.4408  143.8499  164.4120 O.3     1  UNL1       -0.4563
     24 C         144.5319  143.5958  165.4095 C.3     1  UNL1        0.2542
     25 C         139.9248  142.1468  163.4353 C.3     1  UNL1        0.1163
     26 O         140.2593  143.6072  163.5093 O.3     1  UNL1       -0.3820
     27 H         140.3403  143.8737  164.4384 H       1  UNL1        0.2107
     28 C         139.5903  140.6865  163.3613 C.ar    1  UNL1        0.0117
     29 C         139.0618  139.9758  164.5719 C.ar    1  UNL1        0.0559
     30 C         138.7272  138.5155  164.4979 C.ar    1  UNL1        0.2272
     31 N         138.9212  137.7658  163.2133 N.ar    1  UNL1       -0.1767
     32 C         139.4497  138.4764  162.0027 C.ar    1  UNL1        0.2272
     33 C         139.7842  139.9368  162.0767 C.ar    1  UNL1        0.0559
     34 O         138.1987  137.8049  165.7086 O.3     1  UNL1       -0.4561
     35 C         137.7729  138.5908  166.9132 C.3     1  UNL1        0.2542
     36 O         139.6437  137.7267  160.7180 O.3     1  UNL1       -0.4561
     37 C         139.7008  138.4707  159.4167 C.3     1  UNL1        0.2542
     38 C         138.4945  142.4894  163.1406 C.3     1  UNL1        0.0491
     39 C         138.1655  143.4514  162.0376 C.3     1  UNL1        0.0750
     40 N         138.8617  143.3407  160.7136 N.3     1  UNL1       -0.2702
     41 C         138.4393  142.2905  159.7295 C.3     1  UNL1        0.0897
     42 C         139.9804  144.2804  160.3736 C.3     1  UNL1        0.0897
@<TRIPOS>BOND
     1    21    22    1
     2    22    15    1
     3    15    16   ar
     4    16    17   ar
     5    17    18   ar
     6    18    23    1
     7    23    24    1
     8    18    19   ar
     9     1    19    1
    10     1     2    1
    11     2     3   ar
    12     3     4   ar
    13     4     5   ar
    14     5     6   ar
    15     6     7    1
    16     6     8   ar
    17     8     9   ar
    18     9    10   ar
    19    10    11   ar
    20    11    12   ar
    21    12    13    1
    22    13    14    1
    23     1    25    1
    24    25    26    1
    25    25    38    1
    26    38    39    1
    27    39    40    1
    28    40    41    1
    29    40    42    1
    30    25    28    1
    31    28    29   ar
    32    29    30   ar
    33    30    34    1
    34    34    35    1
    35    30    31   ar
    36    31    32   ar
    37    32    36    1
    38    36    37    1
    39    32    33   ar
    40    19    20   ar
    41    20    15   ar
    42    12     2   ar
    43    33    28   ar
    44    10     4   ar
    45    26    27    1
