@<TRIPOS>MOLECULE
*****
 40 44 0 0 0
SMALL
GASTEIGER

@<TRIPOS>ATOM
      1 N         142.0080  144.0573  159.7445 N.3     1  UNL1       -0.1520
      2 C         141.7613  144.4959  161.1576 C.3     1  UNL1        0.1173
      3 C         142.6728  144.0347  162.2560 C.3     1  UNL1        0.1126
      4 N         143.8310  143.1350  161.9414 N.am    1  UNL1       -0.2766
      5 C         144.7425  142.6739  163.0398 C.2     1  UNL1        0.2256
      6 O         145.9007  141.7741  162.7251 O.2     1  UNL1       -0.2749
      7 C         144.0777  142.6964  160.5283 C.3     1  UNL1        0.1126
      8 C         143.1662  143.1576  159.4299 C.3     1  UNL1        0.1173
      9 S         141.0965  144.5185  158.6461 S.O2    1  UNL1        0.0634
     10 O         142.0659  145.6096  158.2998 O.2     1  UNL1       -0.1528
     11 O         140.1272  143.4274  158.9924 O.2     1  UNL1       -0.1528
     12 C         139.1570  146.9030  156.1356 C.ar    1  UNL1       -0.0102
     13 C         138.3620  145.9019  155.3509 C.ar    1  UNL1        0.0004
     14 C         138.4785  144.4398  155.6645 C.ar    1  UNL1        0.0725
     15 C         139.3900  143.9786  156.7629 C.ar    1  UNL1        0.0237
     16 C         140.1850  144.9796  157.5477 C.ar    1  UNL1        0.1219
     17 C         140.0685  146.4418  157.2341 C.ar    1  UNL1        0.0164
     18 C         140.2988  148.3887  153.4638 C.3     1  UNL1        0.0499
     19 C         139.5654  149.0481  154.5939 C.2     1  UNL1        0.0681
     20 N         139.2280  150.5062  154.6943 N.2     1  UNL1       -0.1563
     21 N         138.4946  150.7245  155.9846 N.2     1  UNL1       -0.1510
     22 C         138.3788  149.4013  156.6815 C.2     1  UNL1        0.1054
     23 C         139.0406  148.3652  155.8220 C.3     1  UNL1        0.1032
     24 C         137.6835  143.4386  154.8798 C.3     1  UNL1        0.4186
     25 F         136.8886  142.4376  154.0950 F       1  UNL1       -0.1659
     26 F         138.9216  143.0418  154.1318 F       1  UNL1       -0.1659
     27 F         136.4454  143.8355  155.6277 F       1  UNL1       -0.1659
     28 C         144.4958  143.1124  164.4528 C.3     1  UNL1        0.0811
     29 C         144.8472  143.9825  165.6230 C.3     1  UNL1        0.0142
     30 C         143.7171  143.0020  165.7301 C.3     1  UNL1        0.0314
     31 C         142.6151  142.3721  166.5294 C.ar    1  UNL1       -0.0220
     32 C         142.8138  142.0908  167.9893 C.ar    1  UNL1       -0.0043
     33 C         141.7118  141.4610  168.7886 C.ar    1  UNL1        0.0035
     34 C         140.4110  141.1124  168.1279 C.ar    1  UNL1        0.0714
     35 C         140.2122  141.3936  166.6680 C.ar    1  UNL1        0.0035
     36 C         141.3143  142.0235  165.8687 C.ar    1  UNL1       -0.0043
     37 C         139.3090  140.4825  168.9272 C.3     1  UNL1        0.4186
     38 F         138.2070  139.8527  169.7265 F       1  UNL1       -0.1659
     39 F         139.1542  139.4219  167.8779 F       1  UNL1       -0.1659
     40 F         139.4639  141.5431  169.9765 F       1  UNL1       -0.1659
@<TRIPOS>BOND
     1    18    19    1
     2    19    20    2
     3    20    21    1
     4    21    22    2
     5    22    23    1
     6    23    12    1
     7    12    13   ar
     8    13    14   ar
     9    14    24    1
    10    24    25    1
    11    24    26    1
    12    24    27    1
    13    14    15   ar
    14    15    16   ar
    15    16     9    1
    16     9    10    2
    17     9    11    2
    18     9     1    1
    19     1     2    1
    20     2     3    1
    21     3     4    1
    22     4     5   am
    23     5     6    2
    24    28     5    1
    25    28    29    1
    26    29    30    1
    27    30    31    1
    28    31    32   ar
    29    32    33   ar
    30    33    34   ar
    31    34    37    1
    32    37    38    1
    33    37    39    1
    34    37    40    1
    35    34    35   ar
    36    35    36   ar
    37     4     7    1
    38     7     8    1
    39    16    17   ar
    40    23    19    1
    41    17    12   ar
    42     8     1    1
    43    30    28    1
    44    36    31   ar
@<TRIPOS>MOLECULE
*****
 40 44 0 0 0
SMALL
GASTEIGER

@<TRIPOS>ATOM
      1 N         142.0708  143.9367  159.8326 N.3     1  UNL1       -0.1520
      2 C         141.8111  144.4054  161.2336 C.3     1  UNL1        0.1173
      3 C         142.7127  143.9684  162.3499 C.3     1  UNL1        0.1126
      4 N         143.8740  143.0628  162.0652 N.am    1  UNL1       -0.2766
      5 C         144.7756  142.6258  163.1816 C.2     1  UNL1        0.2256
      6 O         145.9369  141.7202  162.8969 O.2     1  UNL1       -0.2749
      7 C         144.1338  142.5941  160.6642 C.3     1  UNL1        0.1126
      8 C         143.2322  143.0311  159.5479 C.3     1  UNL1        0.1173
      9 S         141.1693  144.3737  158.7162 S.O2    1  UNL1        0.0634
     10 O         140.2128  143.2694  159.0565 O.2     1  UNL1       -0.1528
     11 O         142.1257  145.4780  158.3760 O.2     1  UNL1       -0.1528
     12 C         139.2449  146.7035  156.1436 C.ar    1  UNL1       -0.0102
     13 C         138.4645  145.6846  155.3672 C.ar    1  UNL1        0.0004
     14 C         138.5857  144.2287  155.7072 C.ar    1  UNL1        0.0725
     15 C         139.4873  143.7917  156.8236 C.ar    1  UNL1        0.0237
     16 C         140.2677  144.8107  157.5999 C.ar    1  UNL1        0.1219
     17 C         140.1465  146.2666  157.2599 C.ar    1  UNL1        0.0164
     18 C         140.3474  148.1374  153.4273 C.3     1  UNL1        0.0499
     19 C         139.6304  148.8185  154.5551 C.2     1  UNL1        0.0681
     20 N         139.2944  150.2784  154.6324 N.2     1  UNL1       -0.1563
     21 N         138.5799  150.5216  155.9287 N.2     1  UNL1       -0.1510
     22 C         138.4744  149.2120  156.6526 C.2     1  UNL1        0.1054
     23 C         139.1237  148.1595  155.8036 C.3     1  UNL1        0.1032
     24 C         137.8053  143.2097  154.9309 C.3     1  UNL1        0.4186
     25 F         137.0250  142.1907  154.1545 F       1  UNL1       -0.1659
     26 F         139.0006  142.3035  154.9189 F       1  UNL1       -0.1659
     27 F         136.6101  144.1159  154.9428 F       1  UNL1       -0.1659
     28 C         144.5159  143.0945  164.5826 C.3     1  UNL1        0.0811
     29 C         144.8501  143.9962  165.7337 C.3     1  UNL1        0.0142
     30 C         143.7317  143.0045  165.8581 C.3     1  UNL1        0.0314
     31 C         142.6331  142.3800  166.6663 C.ar    1  UNL1       -0.0220
     32 C         141.3412  141.9977  166.0069 C.ar    1  UNL1       -0.0043
     33 C         140.2426  141.3733  166.8151 C.ar    1  UNL1        0.0035
     34 C         140.4360  141.1310  168.2828 C.ar    1  UNL1        0.0714
     35 C         141.7279  141.5133  168.9422 C.ar    1  UNL1        0.0035
     36 C         142.8265  142.1378  168.1339 C.ar    1  UNL1       -0.0043
     37 C         139.3375  140.5065  169.0909 C.3     1  UNL1        0.4186
     38 F         138.2389  139.8821  169.8991 F       1  UNL1       -0.1659
     39 F         139.6198  141.4615  170.2127 F       1  UNL1       -0.1659
     40 F         139.0551  139.5516  167.9692 F       1  UNL1       -0.1659
@<TRIPOS>BOND
     1    18    19    1
     2    19    20    2
     3    20    21    1
     4    21    22    2
     5    22    23    1
     6    23    12    1
     7    12    13   ar
     8    13    14   ar
     9    14    24    1
    10    24    25    1
    11    24    26    1
    12    24    27    1
    13    14    15   ar
    14    15    16   ar
    15    16     9    1
    16     9    10    2
    17     9    11    2
    18     9     1    1
    19     1     2    1
    20     2     3    1
    21     3     4    1
    22     4     5   am
    23     5     6    2
    24    28     5    1
    25    28    29    1
    26    29    30    1
    27    30    31    1
    28    31    32   ar
    29    32    33   ar
    30    33    34   ar
    31    34    37    1
    32    37    38    1
    33    37    39    1
    34    37    40    1
    35    34    35   ar
    36    35    36   ar
    37     4     7    1
    38     7     8    1
    39    16    17   ar
    40    23    19    1
    41    17    12   ar
    42     8     1    1
    43    30    28    1
    44    36    31   ar
@<TRIPOS>MOLECULE
*****
 40 44 0 0 0
SMALL
GASTEIGER

@<TRIPOS>ATOM
      1 N         140.6485  142.6304  162.3223 N.3     1  UNL1       -0.1520
      2 C         139.5267  142.9256  161.3713 C.3     1  UNL1        0.1173
      3 C         139.8201  143.5280  160.0293 C.3     1  UNL1        0.1126
      4 N         141.2352  143.8354  159.6383 N.am    1  UNL1       -0.2766
      5 C         141.5285  144.4378  158.2963 C.2     1  UNL1        0.2256
      6 O         142.9436  144.7452  157.9052 O.2     1  UNL1       -0.2749
      7 C         142.3570  143.5402  160.5893 C.3     1  UNL1        0.1126
      8 C         142.0636  142.9378  161.9313 C.3     1  UNL1        0.1173
      9 S         140.3552  142.0280  163.6643 S.O2    1  UNL1        0.0634
     10 O         139.5909  140.9211  163.0004 O.2     1  UNL1       -0.1528
     11 O         141.1195  143.1348  164.3282 O.2     1  UNL1       -0.1528
     12 C         140.2897  141.4764  167.5939 C.ar    1  UNL1       -0.0102
     13 C         139.4752  140.2206  167.6903 C.ar    1  UNL1        0.0004
     14 C         138.9541  139.5672  166.4448 C.ar    1  UNL1        0.0725
     15 C         139.2474  140.1696  165.1028 C.ar    1  UNL1        0.0237
     16 C         140.0619  141.4255  165.0063 C.ar    1  UNL1        0.1219
     17 C         140.5830  142.0789  166.2519 C.ar    1  UNL1        0.0164
     18 C         142.4621  140.1972  169.6661 C.3     1  UNL1        0.0499
     19 C         141.8095  141.5419  169.7919 C.2     1  UNL1        0.0681
     20 N         142.0407  142.5347  170.8923 N.2     1  UNL1       -0.1563
     21 N         141.1851  143.7363  170.6199 N.2     1  UNL1       -0.1510
     22 C         140.4251  143.4861  169.3512 C.2     1  UNL1        0.1054
     23 C         140.8109  142.1299  168.8394 C.3     1  UNL1        0.1032
     24 C         138.1395  138.3112  166.5412 C.3     1  UNL1        0.4186
     25 F         137.3250  137.0553  166.6376 F       1  UNL1       -0.1659
     26 F         138.7383  137.8242  165.2551 F       1  UNL1       -0.1659
     27 F         137.5408  138.7982  167.8274 F       1  UNL1       -0.1659
     28 C         140.4067  144.7330  157.3453 C.3     1  UNL1        0.0811
     29 C         139.2024  144.2777  156.5757 C.3     1  UNL1        0.0142
     30 C         139.6680  145.6995  156.4676 C.3     1  UNL1        0.0314
     31 C         139.5104  147.0784  155.8985 C.ar    1  UNL1       -0.0220
     32 C         138.7538  148.1235  156.6635 C.ar    1  UNL1       -0.0043
     33 C         138.5962  149.5024  156.0944 C.ar    1  UNL1        0.0035
     34 C         139.1952  149.8361  154.7603 C.ar    1  UNL1        0.0714
     35 C         139.9517  148.7910  153.9952 C.ar    1  UNL1        0.0035
     36 C         140.1094  147.4121  154.5644 C.ar    1  UNL1       -0.0043
     37 C         139.0375  151.2150  154.1912 C.3     1  UNL1        0.4186
     38 F         138.8799  152.5938  153.6221 F       1  UNL1       -0.1659
     39 F         139.9839  150.8651  153.0813 F       1  UNL1       -0.1659
     40 F         138.0911  151.5648  155.3011 F       1  UNL1       -0.1659
@<TRIPOS>BOND
     1    18    19    1
     2    19    20    2
     3    20    21    1
     4    21    22    2
     5    22    23    1
     6    23    12    1
     7    12    13   ar
     8    13    14   ar
     9    14    24    1
    10    24    25    1
    11    24    26    1
    12    24    27    1
    13    14    15   ar
    14    15    16   ar
    15    16     9    1
    16     9    10    2
    17     9    11    2
    18     9     1    1
    19     1     2    1
    20     2     3    1
    21     3     4    1
    22     4     5   am
    23     5     6    2
    24    28     5    1
    25    28    29    1
    26    29    30    1
    27    30    31    1
    28    31    32   ar
    29    32    33   ar
    30    33    34   ar
    31    34    37    1
    32    37    38    1
    33    37    39    1
    34    37    40    1
    35    34    35   ar
    36    35    36   ar
    37     4     7    1
    38     7     8    1
    39    16    17   ar
    40    23    19    1
    41    17    12   ar
    42     8     1    1
    43    30    28    1
    44    36    31   ar
@<TRIPOS>MOLECULE
*****
 40 44 0 0 0
SMALL
GASTEIGER

@<TRIPOS>ATOM
      1 N         141.4501  142.8520  162.1916 N.3     1  UNL1       -0.1520
      2 C         141.8377  141.8764  161.1202 C.3     1  UNL1        0.1173
      3 C         142.1385  142.3648  159.7342 C.3     1  UNL1        0.1126
      4 N         142.0517  143.8288  159.4196 N.am    1  UNL1       -0.2766
      5 C         142.3525  144.3173  158.0337 C.2     1  UNL1        0.2256
      6 O         142.2658  145.7813  157.7191 O.2     1  UNL1       -0.2749
      7 C         141.6641  144.8044  160.4910 C.3     1  UNL1        0.1126
      8 C         141.3633  144.3160  161.8770 C.3     1  UNL1        0.1173
      9 S         141.1492  142.3635  163.5776 S.O2    1  UNL1        0.0634
     10 O         141.2450  143.7687  164.0936 O.2     1  UNL1       -0.1528
     11 O         141.0534  140.9583  163.0616 O.2     1  UNL1       -0.1528
     12 C         141.3273  141.9153  167.5168 C.ar    1  UNL1       -0.0102
     13 C         140.2468  140.8982  167.7355 C.ar    1  UNL1        0.0004
     14 C         139.4671  140.3695  166.5682 C.ar    1  UNL1        0.0725
     15 C         139.7679  140.8580  165.1823 C.ar    1  UNL1        0.0237
     16 C         140.8484  141.8751  164.9635 C.ar    1  UNL1        0.1219
     17 C         141.6281  142.4037  166.1308 C.ar    1  UNL1        0.0164
     18 C         140.1470  143.7645  169.9328 C.3     1  UNL1        0.0499
     19 C         141.5645  143.2940  169.7946 C.2     1  UNL1        0.0681
     20 N         142.6884  143.5908  170.7425 N.2     1  UNL1       -0.1563
     21 N         143.9257  142.9243  170.2179 N.2     1  UNL1       -0.1510
     22 C         143.5663  142.2156  168.9457 C.2     1  UNL1        0.1054
     23 C         142.1071  142.4440  168.6841 C.3     1  UNL1        0.1032
     24 C         138.3864  139.3524  166.7869 C.3     1  UNL1        0.4186
     25 F         137.3059  138.3353  167.0056 F       1  UNL1       -0.1659
     26 F         138.2558  139.1723  165.3036 F       1  UNL1       -0.1659
     27 F         138.5171  139.5324  168.2703 F       1  UNL1       -0.1659
     28 C         142.7401  143.3417  156.9623 C.3     1  UNL1        0.0811
     29 C         142.3516  142.3519  155.9044 C.3     1  UNL1        0.0142
     30 C         143.8001  142.6417  156.1644 C.3     1  UNL1        0.0314
     31 C         145.2485  142.4050  155.8539 C.ar    1  UNL1       -0.0220
     32 C         146.2880  142.6240  156.9129 C.ar    1  UNL1       -0.0043
     33 C         147.7363  142.3873  156.6024 C.ar    1  UNL1        0.0035
     34 C         148.1451  141.9315  155.2330 C.ar    1  UNL1        0.0714
     35 C         147.1055  141.7124  154.1741 C.ar    1  UNL1        0.0035
     36 C         145.6571  141.9492  154.4846 C.ar    1  UNL1       -0.0043
     37 C         149.5933  141.6947  154.9226 C.3     1  UNL1        0.4186
     38 F         151.0416  141.4580  154.6121 F       1  UNL1       -0.1659
     39 F         149.9534  142.0438  156.3362 F       1  UNL1       -0.1659
     40 F         149.2333  141.3457  153.5089 F       1  UNL1       -0.1659
@<TRIPOS>BOND
     1    18    19    1
     2    19    20    2
     3    20    21    1
     4    21    22    2
     5    22    23    1
     6    23    12    1
     7    12    13   ar
     8    13    14   ar
     9    14    24    1
    10    24    25    1
    11    24    26    1
    12    24    27    1
    13    14    15   ar
    14    15    16   ar
    15    16     9    1
    16     9    10    2
    17     9    11    2
    18     9     1    1
    19     1     2    1
    20     2     3    1
    21     3     4    1
    22     4     5   am
    23     5     6    2
    24    28     5    1
    25    28    29    1
    26    29    30    1
    27    30    31    1
    28    31    32   ar
    29    32    33   ar
    30    33    34   ar
    31    34    37    1
    32    37    38    1
    33    37    39    1
    34    37    40    1
    35    34    35   ar
    36    35    36   ar
    37     4     7    1
    38     7     8    1
    39    16    17   ar
    40    23    19    1
    41    17    12   ar
    42     8     1    1
    43    30    28    1
    44    36    31   ar
@<TRIPOS>MOLECULE
*****
 40 44 0 0 0
SMALL
GASTEIGER

@<TRIPOS>ATOM
      1 N         142.0187  143.9526  159.7443 N.3     1  UNL1       -0.1520
      2 C         141.7841  144.4194  161.1504 C.3     1  UNL1        0.1173
      3 C         142.6905  143.9606  162.2540 C.3     1  UNL1        0.1126
      4 N         143.8314  143.0350  161.9516 N.am    1  UNL1       -0.2766
      5 C         144.7378  142.5763  163.0552 C.2     1  UNL1        0.2256
      6 O         145.8788  141.6507  162.7528 O.2     1  UNL1       -0.2749
      7 C         144.0660  142.5682  160.5456 C.3     1  UNL1        0.1126
      8 C         143.1596  143.0270  159.4419 C.3     1  UNL1        0.1173
      9 S         141.1123  144.4114  158.6407 S.O2    1  UNL1        0.0634
     10 O         140.3723  143.1083  158.7067 O.2     1  UNL1       -0.1528
     11 O         141.8523  145.7145  158.5747 O.2     1  UNL1       -0.1528
     12 C         138.4953  144.3277  155.6584 C.ar    1  UNL1       -0.0102
     13 C         138.3932  145.7877  155.3298 C.ar    1  UNL1        0.0004
     14 C         139.1974  146.7889  156.1049 C.ar    1  UNL1        0.0725
     15 C         140.1038  146.3301  157.2085 C.ar    1  UNL1        0.0237
     16 C         140.2059  144.8701  157.5371 C.ar    1  UNL1        0.1219
     17 C         139.4017  143.8690  156.7620 C.ar    1  UNL1        0.0164
     18 C         139.2644  143.0996  152.7343 C.3     1  UNL1        0.0499
     19 C         138.0446  142.7620  153.5393 C.2     1  UNL1        0.0681
     20 N         136.9641  141.8006  153.1415 N.2     1  UNL1       -0.1563
     21 N         135.9428  141.7708  154.2398 N.2     1  UNL1       -0.1510
     22 C         136.3921  142.7139  155.3162 C.2     1  UNL1        0.1054
     23 C         137.6911  143.3264  154.8833 C.3     1  UNL1        0.1032
     24 C         139.0953  148.2490  155.7763 C.3     1  UNL1        0.4186
     25 F         138.9932  149.7089  155.4477 F       1  UNL1       -0.1659
     26 F         139.6736  147.9837  154.4179 F       1  UNL1       -0.1659
     27 F         138.5171  148.5142  157.1347 F       1  UNL1       -0.1659
     28 C         144.5033  143.0431  164.4613 C.3     1  UNL1        0.0811
     29 C         144.8674  143.9333  165.6123 C.3     1  UNL1        0.0142
     30 C         143.7327  142.9614  165.7457 C.3     1  UNL1        0.0314
     31 C         142.6327  142.3531  166.5642 C.ar    1  UNL1       -0.0220
     32 C         142.9466  141.7100  167.8825 C.ar    1  UNL1       -0.0043
     33 C         141.8466  141.1017  168.7011 C.ar    1  UNL1        0.0035
     34 C         140.4327  141.1366  168.2014 C.ar    1  UNL1        0.0714
     35 C         140.1188  141.7797  166.8831 C.ar    1  UNL1        0.0035
     36 C         141.2188  142.3880  166.0645 C.ar    1  UNL1       -0.0043
     37 C         139.3327  140.5283  169.0199 C.3     1  UNL1        0.4186
     38 F         138.2328  139.9200  169.8385 F       1  UNL1       -0.1659
     39 F         139.4851  141.6207  170.0365 F       1  UNL1       -0.1659
     40 F         139.1804  139.4359  168.0034 F       1  UNL1       -0.1659
@<TRIPOS>BOND
     1    18    19    1
     2    19    20    2
     3    20    21    1
     4    21    22    2
     5    22    23    1
     6    23    12    1
     7    12    13   ar
     8    13    14   ar
     9    14    24    1
    10    24    25    1
    11    24    26    1
    12    24    27    1
    13    14    15   ar
    14    15    16   ar
    15    16     9    1
    16     9    10    2
    17     9    11    2
    18     9     1    1
    19     1     2    1
    20     2     3    1
    21     3     4    1
    22     4     5   am
    23     5     6    2
    24    28     5    1
    25    28    29    1
    26    29    30    1
    27    30    31    1
    28    31    32   ar
    29    32    33   ar
    30    33    34   ar
    31    34    37    1
    32    37    38    1
    33    37    39    1
    34    37    40    1
    35    34    35   ar
    36    35    36   ar
    37     4     7    1
    38     7     8    1
    39    16    17   ar
    40    23    19    1
    41    17    12   ar
    42     8     1    1
    43    30    28    1
    44    36    31   ar
@<TRIPOS>MOLECULE
*****
 40 44 0 0 0
SMALL
GASTEIGER

@<TRIPOS>ATOM
      1 N         142.3687  141.3736  162.4234 N.3     1  UNL1       -0.1520
      2 C         141.8469  140.6788  161.2008 C.3     1  UNL1        0.1173
      3 C         142.5338  140.8667  159.8806 C.3     1  UNL1        0.1126
      4 N         143.7425  141.7495  159.7831 N.am    1  UNL1       -0.2766
      5 C         144.4294  141.9375  158.4629 C.2     1  UNL1        0.2256
      6 O         145.6382  142.8202  158.3654 O.2     1  UNL1       -0.2749
      7 C         144.2644  142.4443  161.0057 C.3     1  UNL1        0.1126
      8 C         143.5775  142.2564  162.3259 C.3     1  UNL1        0.1173
      9 S         141.6818  141.1856  163.7436 S.O2    1  UNL1        0.0634
     10 O         140.7411  140.2014  163.1140 O.2     1  UNL1       -0.1528
     11 O         142.6225  142.1698  164.3732 O.2     1  UNL1       -0.1528
     12 C         140.6741  141.6789  167.5503 C.ar    1  UNL1       -0.0102
     13 C         139.6211  140.6217  167.7041 C.ar    1  UNL1        0.0004
     14 C         139.2550  139.7526  166.5377 C.ar    1  UNL1        0.0725
     15 C         139.9419  139.9406  165.2175 C.ar    1  UNL1        0.0237
     16 C         140.9949  140.9977  165.0638 C.ar    1  UNL1        0.1219
     17 C         141.3610  141.8668  166.2301 C.ar    1  UNL1        0.0164
     18 C         143.2975  141.3236  169.4586 C.3     1  UNL1        0.0499
     19 C         142.2460  142.3848  169.5938 C.2     1  UNL1        0.0681
     20 N         142.2158  143.4689  170.6300 N.2     1  UNL1       -0.1563
     21 N         140.9913  144.3024  170.3933 N.2     1  UNL1       -0.1510
     22 C         140.2647  143.7332  169.2108 C.2     1  UNL1        0.1054
     23 C         141.0402  142.5481  168.7167 C.3     1  UNL1        0.1032
     24 C         138.2020  138.6954  166.6914 C.3     1  UNL1        0.4186
     25 F         137.1490  137.6383  166.8451 F       1  UNL1       -0.1659
     26 F         138.3803  138.3087  165.2532 F       1  UNL1       -0.1659
     27 F         138.0236  139.0822  168.1297 F       1  UNL1       -0.1659
     28 C         143.9076  141.2426  157.2403 C.3     1  UNL1        0.0811
     29 C         143.3435  141.3051  155.8519 C.3     1  UNL1        0.0142
     30 C         143.5678  139.9766  156.5111 C.3     1  UNL1        0.0314
     31 C         143.5011  138.4786  156.4708 C.ar    1  UNL1       -0.0220
     32 C         144.2261  137.7243  155.3959 C.ar    1  UNL1       -0.0043
     33 C         144.1594  136.2263  155.3555 C.ar    1  UNL1        0.0035
     34 C         143.3677  135.4826  156.3900 C.ar    1  UNL1        0.0714
     35 C         142.6427  136.2369  157.4649 C.ar    1  UNL1        0.0035
     36 C         142.7094  137.7349  157.5052 C.ar    1  UNL1       -0.0043
     37 C         143.3011  133.9847  156.3496 C.3     1  UNL1        0.4186
     38 F         143.2344  132.4867  156.3092 F       1  UNL1       -0.1659
     39 F         143.3939  134.0209  154.8529 F       1  UNL1       -0.1659
     40 F         143.2082  133.9484  157.8462 F       1  UNL1       -0.1659
@<TRIPOS>BOND
     1    18    19    1
     2    19    20    2
     3    20    21    1
     4    21    22    2
     5    22    23    1
     6    23    12    1
     7    12    13   ar
     8    13    14   ar
     9    14    24    1
    10    24    25    1
    11    24    26    1
    12    24    27    1
    13    14    15   ar
    14    15    16   ar
    15    16     9    1
    16     9    10    2
    17     9    11    2
    18     9     1    1
    19     1     2    1
    20     2     3    1
    21     3     4    1
    22     4     5   am
    23     5     6    2
    24    28     5    1
    25    28    29    1
    26    29    30    1
    27    30    31    1
    28    31    32   ar
    29    32    33   ar
    30    33    34   ar
    31    34    37    1
    32    37    38    1
    33    37    39    1
    34    37    40    1
    35    34    35   ar
    36    35    36   ar
    37     4     7    1
    38     7     8    1
    39    16    17   ar
    40    23    19    1
    41    17    12   ar
    42     8     1    1
    43    30    28    1
    44    36    31   ar
@<TRIPOS>MOLECULE
*****
 40 44 0 0 0
SMALL
GASTEIGER

@<TRIPOS>ATOM
      1 N         140.9599  142.3160  162.6004 N.3     1  UNL1       -0.1520
      2 C         141.2998  141.4270  161.4410 C.3     1  UNL1        0.1173
      3 C         141.7098  142.0287  160.1296 C.3     1  UNL1        0.1126
      4 N         141.7799  143.5193  159.9775 N.am    1  UNL1       -0.2766
      5 C         142.1899  144.1210  158.6661 C.2     1  UNL1        0.2256
      6 O         142.2599  145.6116  158.5140 O.2     1  UNL1       -0.2749
      7 C         141.4399  144.4082  161.1369 C.3     1  UNL1        0.1126
      8 C         141.0299  143.8065  162.4483 C.3     1  UNL1        0.1173
      9 S         140.5499  141.7143  163.9118 S.O2    1  UNL1        0.0634
     10 O         141.6078  142.5160  164.6104 O.2     1  UNL1       -0.1528
     11 O         139.4919  140.9126  163.2132 O.2     1  UNL1       -0.1528
     12 C         140.1760  141.1406  167.8209 C.ar    1  UNL1       -0.0102
     13 C         139.3198  139.9092  167.8461 C.ar    1  UNL1        0.0004
     14 C         138.8737  139.2795  166.5599 C.ar    1  UNL1        0.0725
     15 C         139.2837  139.8812  165.2485 C.ar    1  UNL1        0.0237
     16 C         140.1399  141.1126  165.2232 C.ar    1  UNL1        0.1219
     17 C         140.5860  141.7422  166.5095 C.ar    1  UNL1        0.0164
     18 C         142.0509  139.7382  170.0942 C.3     1  UNL1        0.0499
     19 C         141.4840  141.1257  170.1520 C.2     1  UNL1        0.0681
     20 N         141.6794  142.1122  171.2650 N.2     1  UNL1       -0.1563
     21 N         140.9383  143.3666  170.9079 N.2     1  UNL1       -0.1510
     22 C         140.2850  143.1552  169.5743 C.2     1  UNL1        0.1054
     23 C         140.6222  141.7703  169.1072 C.3     1  UNL1        0.1032
     24 C         138.0175  138.0481  166.5851 C.3     1  UNL1        0.4186
     25 F         137.1613  136.8168  166.6103 F       1  UNL1       -0.1659
     26 F         137.2478  138.6070  167.7449 F       1  UNL1       -0.1659
     27 F         138.7871  137.4892  165.4252 F       1  UNL1       -0.1659
     28 C         142.5298  143.2321  157.5067 C.3     1  UNL1        0.0811
     29 C         142.0948  142.3279  156.3918 C.3     1  UNL1        0.0142
     30 C         143.5538  142.5967  156.6135 C.3     1  UNL1        0.0314
     31 C         144.9873  142.3850  156.2257 C.ar    1  UNL1       -0.0220
     32 C         145.3263  141.8733  154.8571 C.ar    1  UNL1       -0.0043
     33 C         146.7598  141.6616  154.4694 C.ar    1  UNL1        0.0035
     34 C         147.8543  141.9616  155.4503 C.ar    1  UNL1        0.0714
     35 C         147.5152  142.4733  156.8189 C.ar    1  UNL1        0.0035
     36 C         146.0817  142.6850  157.2067 C.ar    1  UNL1       -0.0043
     37 C         149.2877  141.7500  155.0625 C.3     1  UNL1        0.4186
     38 F         150.7212  141.5383  154.6748 F       1  UNL1       -0.1659
     39 F         148.8572  141.3758  153.6753 F       1  UNL1       -0.1659
     40 F         149.7182  142.1242  156.4498 F       1  UNL1       -0.1659
@<TRIPOS>BOND
     1    18    19    1
     2    19    20    2
     3    20    21    1
     4    21    22    2
     5    22    23    1
     6    23    12    1
     7    12    13   ar
     8    13    14   ar
     9    14    24    1
    10    24    25    1
    11    24    26    1
    12    24    27    1
    13    14    15   ar
    14    15    16   ar
    15    16     9    1
    16     9    10    2
    17     9    11    2
    18     9     1    1
    19     1     2    1
    20     2     3    1
    21     3     4    1
    22     4     5   am
    23     5     6    2
    24    28     5    1
    25    28    29    1
    26    29    30    1
    27    30    31    1
    28    31    32   ar
    29    32    33   ar
    30    33    34   ar
    31    34    37    1
    32    37    38    1
    33    37    39    1
    34    37    40    1
    35    34    35   ar
    36    35    36   ar
    37     4     7    1
    38     7     8    1
    39    16    17   ar
    40    23    19    1
    41    17    12   ar
    42     8     1    1
    43    30    28    1
    44    36    31   ar
@<TRIPOS>MOLECULE
*****
 40 44 0 0 0
SMALL
GASTEIGER

@<TRIPOS>ATOM
      1 N         142.0787  141.5020  162.3527 N.3     1  UNL1       -0.1520
      2 C         141.2123  141.6696  161.1398 C.3     1  UNL1        0.1173
      3 C         141.8325  142.0027  159.8153 C.3     1  UNL1        0.1126
      4 N         143.3191  142.1682  159.7037 N.am    1  UNL1       -0.2766
      5 C         143.9394  142.5013  158.3792 C.2     1  UNL1        0.2256
      6 O         145.4260  142.6667  158.2676 O.2     1  UNL1       -0.2749
      7 C         144.1855  142.0006  160.9166 C.3     1  UNL1        0.1126
      8 C         143.5653  141.6675  162.2411 C.3     1  UNL1        0.1173
      9 S         141.4584  141.1689  163.6772 S.O2    1  UNL1        0.0634
     10 O         141.3189  142.6314  163.9797 O.2     1  UNL1       -0.1528
     11 O         141.5979  139.7063  163.3748 O.2     1  UNL1       -0.1528
     12 C         140.5898  141.2899  167.5477 C.ar    1  UNL1       -0.0102
     13 C         139.5977  140.1696  167.6508 C.ar    1  UNL1        0.0004
     14 C         139.2259  139.3824  166.4293 C.ar    1  UNL1        0.0725
     15 C         139.8461  139.7155  165.1048 C.ar    1  UNL1        0.0237
     16 C         140.8382  140.8358  165.0018 C.ar    1  UNL1        0.1219
     17 C         141.2100  141.6230  166.2232 C.ar    1  UNL1        0.0164
     18 C         142.6891  140.3571  169.8656 C.3     1  UNL1        0.0499
     19 C         141.9266  141.6485  169.8346 C.2     1  UNL1        0.0681
     20 N         141.9951  142.7377  170.8635 N.2     1  UNL1       -0.1563
     21 N         141.0725  143.8398  170.4341 N.2     1  UNL1       -0.1510
     22 C         140.4338  143.4315  169.1397 C.2     1  UNL1        0.1054
     23 C         140.9616  142.0772  168.7692 C.3     1  UNL1        0.1032
     24 C         138.2338  138.2620  166.5324 C.3     1  UNL1        0.4186
     25 F         137.2418  137.1416  166.6354 F       1  UNL1       -0.1659
     26 F         138.9285  137.5440  165.4136 F       1  UNL1       -0.1659
     27 F         137.5391  138.9800  167.6512 F       1  UNL1       -0.1659
     28 C         143.0730  142.6689  157.1662 C.3     1  UNL1        0.0811
     29 C         142.5357  142.1382  155.8703 C.3     1  UNL1        0.0142
     30 C         142.1097  143.4900  156.3614 C.3     1  UNL1        0.0314
     31 C         141.3075  144.7445  156.1802 C.ar    1  UNL1       -0.0220
     32 C         140.5432  145.3194  157.3357 C.ar    1  UNL1       -0.0043
     33 C         139.7411  146.5739  157.1546 C.ar    1  UNL1        0.0035
     34 C         139.7032  147.2535  155.8179 C.ar    1  UNL1        0.0714
     35 C         140.4675  146.6786  154.6623 C.ar    1  UNL1        0.0035
     36 C         141.2697  145.4240  154.8435 C.ar    1  UNL1       -0.0043
     37 C         138.9011  148.5080  155.6368 C.3     1  UNL1        0.4186
     38 F         138.0989  149.7624  155.4556 F       1  UNL1       -0.1659
     39 F         139.2771  148.5388  154.1850 F       1  UNL1       -0.1659
     40 F         138.5250  148.4771  157.0885 F       1  UNL1       -0.1659
@<TRIPOS>BOND
     1    18    19    1
     2    19    20    2
     3    20    21    1
     4    21    22    2
     5    22    23    1
     6    23    12    1
     7    12    13   ar
     8    13    14   ar
     9    14    24    1
    10    24    25    1
    11    24    26    1
    12    24    27    1
    13    14    15   ar
    14    15    16   ar
    15    16     9    1
    16     9    10    2
    17     9    11    2
    18     9     1    1
    19     1     2    1
    20     2     3    1
    21     3     4    1
    22     4     5   am
    23     5     6    2
    24    28     5    1
    25    28    29    1
    26    29    30    1
    27    30    31    1
    28    31    32   ar
    29    32    33   ar
    30    33    34   ar
    31    34    37    1
    32    37    38    1
    33    37    39    1
    34    37    40    1
    35    34    35   ar
    36    35    36   ar
    37     4     7    1
    38     7     8    1
    39    16    17   ar
    40    23    19    1
    41    17    12   ar
    42     8     1    1
    43    30    28    1
    44    36    31   ar
@<TRIPOS>MOLECULE
*****
 40 44 0 0 0
SMALL
GASTEIGER

@<TRIPOS>ATOM
      1 N         139.0129  141.1538  160.1231 N.3     1  UNL1       -0.1520
      2 C         138.0653  140.2621  159.3769 C.3     1  UNL1        0.1173
      3 C         137.4426  140.7338  158.0964 C.3     1  UNL1        0.1126
      4 N         137.7677  142.0971  157.5619 N.am    1  UNL1       -0.2766
      5 C         137.1450  142.5688  156.2814 C.2     1  UNL1        0.2256
      6 O         137.4700  143.9321  155.7470 O.2     1  UNL1       -0.2749
      7 C         138.7153  142.9888  158.3081 C.3     1  UNL1        0.1126
      8 C         139.3379  142.5171  159.5887 C.3     1  UNL1        0.1173
      9 S         139.6356  140.6822  161.4037 S.O2    1  UNL1        0.0634
     10 O         140.2142  142.0482  161.6254 O.2     1  UNL1       -0.1528
     11 O         139.0569  139.3162  161.1819 O.2     1  UNL1       -0.1528
     12 C         140.0218  139.4875  165.1685 C.ar    1  UNL1       -0.0102
     13 C         141.5035  139.2672  165.2454 C.ar    1  UNL1        0.0004
     14 C         142.3625  139.5186  164.0418 C.ar    1  UNL1        0.0725
     15 C         141.7399  139.9902  162.7612 C.ar    1  UNL1        0.0237
     16 C         140.2582  140.2105  162.6843 C.ar    1  UNL1        0.1219
     17 C         139.3991  139.9592  163.8879 C.ar    1  UNL1        0.0164
     18 C         140.3598  140.8936  168.0940 C.3     1  UNL1        0.0499
     19 C         139.3180  139.8825  167.7168 C.2     1  UNL1        0.0681
     20 N         138.2487  139.3401  168.6181 N.2     1  UNL1       -0.1563
     21 N         137.4323  138.3586  167.8305 N.2     1  UNL1       -0.1510
     22 C         137.9972  138.2944  166.4424 C.2     1  UNL1        0.1054
     23 C         139.1626  139.2362  166.3721 C.3     1  UNL1        0.1032
     24 C         143.8443  139.2983  164.1187 C.3     1  UNL1        0.4186
     25 F         145.3260  139.0780  164.1956 F       1  UNL1       -0.1659
     26 F         143.9105  140.1695  165.3379 F       1  UNL1       -0.1659
     27 F         143.7781  138.4270  162.8995 F       1  UNL1       -0.1659
     28 C         136.1974  141.6771  155.5352 C.3     1  UNL1        0.0811
     29 C         135.8427  140.9012  154.3015 C.3     1  UNL1        0.0142
     30 C         134.9106  140.9085  155.4766 C.3     1  UNL1        0.0314
     31 C         133.6294  140.4690  156.1212 C.ar    1  UNL1       -0.0220
     32 C         132.3208  141.0284  155.6470 C.ar    1  UNL1       -0.0043
     33 C         131.0397  140.5889  156.2916 C.ar    1  UNL1        0.0035
     34 C         131.0670  139.5900  157.4104 C.ar    1  UNL1        0.0714
     35 C         132.3756  139.0307  157.8845 C.ar    1  UNL1        0.0035
     36 C         133.6568  139.4702  157.2399 C.ar    1  UNL1       -0.0043
     37 C         129.7859  139.1506  158.0549 C.3     1  UNL1        0.4186
     38 F         128.5048  138.7111  158.6995 F       1  UNL1       -0.1659
     39 F         129.0512  140.2470  157.3421 F       1  UNL1       -0.1659
     40 F         130.5206  138.0542  158.7677 F       1  UNL1       -0.1659
@<TRIPOS>BOND
     1    18    19    1
     2    19    20    2
     3    20    21    1
     4    21    22    2
     5    22    23    1
     6    23    12    1
     7    12    13   ar
     8    13    14   ar
     9    14    24    1
    10    24    25    1
    11    24    26    1
    12    24    27    1
    13    14    15   ar
    14    15    16   ar
    15    16     9    1
    16     9    10    2
    17     9    11    2
    18     9     1    1
    19     1     2    1
    20     2     3    1
    21     3     4    1
    22     4     5   am
    23     5     6    2
    24    28     5    1
    25    28    29    1
    26    29    30    1
    27    30    31    1
    28    31    32   ar
    29    32    33   ar
    30    33    34   ar
    31    34    37    1
    32    37    38    1
    33    37    39    1
    34    37    40    1
    35    34    35   ar
    36    35    36   ar
    37     4     7    1
    38     7     8    1
    39    16    17   ar
    40    23    19    1
    41    17    12   ar
    42     8     1    1
    43    30    28    1
    44    36    31   ar
