@<TRIPOS>MOLECULE
*****
 25 29 0 0 0
SMALL
GASTEIGER

@<TRIPOS>ATOM
      1 N         140.0438  139.5840  171.2449 N.pl3   1  UNL1       -0.3133
      2 C         140.8837  140.3061  170.2336 C.2     1  UNL1        0.2770
      3 N         140.6507  140.3335  168.7520 N.2     1  UNL1       -0.2202
      4 C         141.7271  141.1720  168.1288 C.3     1  UNL1        0.1582
      5 C         142.6254  141.6629  169.2253 C.3     1  UNL1        0.2351
      6 O         142.1041  141.1277  170.5261 O.2     1  UNL1       -0.4478
      7 C         140.7460  140.6084  167.1441 C.ar    1  UNL1        0.0362
      8 C         139.6133  139.7490  167.6221 C.ar    1  UNL1        0.0073
      9 C         138.6321  139.1854  166.6374 C.ar    1  UNL1        0.0345
     10 BR        137.4995  138.3261  167.1153 Br      1  UNL1       -0.0490
     11 C         138.7838  139.4812  165.1746 C.ar    1  UNL1        0.0098
     12 C         139.9164  140.3406  164.6967 C.ar    1  UNL1        0.0371
     13 C         140.8976  140.9042  165.6814 C.ar    1  UNL1        0.1362
     14 O         142.0303  141.7635  165.2035 O.3     1  UNL1       -0.4792
     15 C         143.0114  142.3271  166.1882 C.3     1  UNL1        0.1726
     16 C         142.8598  142.0314  167.6509 C.3     1  UNL1        0.1174
     17 C         142.5861  141.8742  167.3762 C.3     1  UNL1        0.1502
     18 O         142.8738  142.0394  167.6650 O.3     1  UNL1       -0.3532
     19 C         142.5861  141.8742  167.3762 C.3     1  UNL1        0.1502
     20 H         139.2575  139.0680  170.9536 H       1  UNL1        0.1466
     21 H         140.2787  139.6260  172.2000 H       1  UNL1        0.1466
     22 C         144.1441  143.1865  165.7102 C.3     1  UNL1        0.0438
     23 C         144.0067  143.9691  164.4379 C.3     1  UNL1        0.0036
     24 C         143.5865  145.2169  163.7193 C.3     1  UNL1        0.0001
     25 C         144.1889  144.0768  162.9530 C.3     1  UNL1        0.0001
@<TRIPOS>BOND
     1     1     2    1
     2     2     3    2
     3     3     4    1
     4     4     5    1
     5     5     6    1
     6     4     7    1
     7     7     8   ar
     8     8     9   ar
     9     9    10    1
    10     9    11   ar
    11    11    12   ar
    12    12    13   ar
    13    13    14    1
    14    14    15    1
    15    15    22    1
    16    22    23    1
    17    23    24    1
    18    24    25    1
    19    15    16    1
    20    16    17    1
    21    17    18    1
    22    18    19    1
    23     6     2    1
    24    13     7   ar
    25    25    23    1
    26    19    16    1
    27    16     4    1
    28     1    20    1
    29     1    21    1
@<TRIPOS>MOLECULE
*****
 25 29 0 0 0
SMALL
GASTEIGER

@<TRIPOS>ATOM
      1 N         137.7698  143.5883  161.7131 N.pl3   1  UNL1       -0.3133
      2 C         138.4262  143.5233  163.0602 C.2     1  UNL1        0.2770
      3 N         138.8162  142.2731  163.7915 N.2     1  UNL1       -0.2202
      4 C         139.4389  142.6742  165.0960 C.3     1  UNL1        0.1582
      5 C         139.4337  144.1724  165.1707 C.3     1  UNL1        0.2351
      6 O         138.8078  144.6971  163.9125 O.2     1  UNL1       -0.4478
      7 C         139.3755  141.1911  164.8808 C.ar    1  UNL1        0.0362
      8 C         138.7779  140.6411  163.6196 C.ar    1  UNL1        0.0073
      9 C         138.7145  139.1580  163.4044 C.ar    1  UNL1        0.0345
     10 BR        138.1170  138.6079  162.1433 Br      1  UNL1       -0.0490
     11 C         139.2486  138.2248  164.4504 C.ar    1  UNL1        0.0098
     12 C         139.8461  138.7748  165.7115 C.ar    1  UNL1        0.0371
     13 C         139.9096  140.2580  165.9267 C.ar    1  UNL1        0.1362
     14 O         140.5071  140.8080  167.1878 O.3     1  UNL1       -0.4792
     15 C         140.5705  142.2911  167.4030 C.3     1  UNL1        0.1726
     16 C         140.0364  143.2242  166.3571 C.3     1  UNL1        0.1174
     17 C         140.0187  142.8104  166.2970 C.3     1  UNL1        0.1502
     18 O         140.0373  143.2454  166.3601 O.3     1  UNL1       -0.3532
     19 C         140.0187  142.8104  166.2970 C.3     1  UNL1        0.1502
     20 H         137.5574  142.7580  161.2285 H       1  UNL1        0.1466
     21 H         137.5514  144.4611  161.3135 H       1  UNL1        0.1466
     22 C         141.1681  142.8411  168.6642 C.3     1  UNL1        0.0438
     23 C         142.4083  142.2229  169.2381 C.3     1  UNL1        0.0036
     24 C         143.8364  142.3465  169.6803 C.3     1  UNL1        0.0001
     25 C         143.1286  141.0286  169.7902 C.3     1  UNL1        0.0001
@<TRIPOS>BOND
     1     1     2    1
     2     2     3    2
     3     3     4    1
     4     4     5    1
     5     5     6    1
     6     4     7    1
     7     7     8   ar
     8     8     9   ar
     9     9    10    1
    10     9    11   ar
    11    11    12   ar
    12    12    13   ar
    13    13    14    1
    14    14    15    1
    15    15    22    1
    16    22    23    1
    17    23    24    1
    18    24    25    1
    19    15    16    1
    20    16    17    1
    21    17    18    1
    22    18    19    1
    23     6     2    1
    24    13     7   ar
    25    25    23    1
    26    19    16    1
    27    16     4    1
    28     1    20    1
    29     1    21    1
@<TRIPOS>MOLECULE
*****
 25 29 0 0 0
SMALL
GASTEIGER

@<TRIPOS>ATOM
      1 N         138.5285  140.0640  170.4143 N.pl3   1  UNL1       -0.3133
      2 C         138.4950  139.6014  168.9879 C.2     1  UNL1        0.2770
      3 N         139.5103  139.9247  167.9320 N.2     1  UNL1       -0.2202
      4 C         139.0832  139.2573  166.6584 C.3     1  UNL1        0.1582
      5 C         137.8039  138.5214  166.9271 C.3     1  UNL1        0.2351
      6 O         137.4405  138.7341  168.3668 O.2     1  UNL1       -0.4478
      7 C         140.3589  140.0374  166.5402 C.ar    1  UNL1        0.0362
      8 C         140.9098  140.7594  167.7341 C.ar    1  UNL1        0.0073
      9 C         142.1855  141.5395  167.6160 C.ar    1  UNL1        0.0345
     10 BR        142.7364  142.2615  168.8098 Br      1  UNL1       -0.0490
     11 C         142.9103  141.5977  166.3040 C.ar    1  UNL1        0.0098
     12 C         142.3594  140.8757  165.1102 C.ar    1  UNL1        0.0371
     13 C         141.0837  140.0956  165.2283 C.ar    1  UNL1        0.1362
     14 O         140.5328  139.3736  164.0345 O.3     1  UNL1       -0.4792
     15 C         139.2571  138.5935  164.1526 C.3     1  UNL1        0.1726
     16 C         138.5323  138.5353  165.4646 C.3     1  UNL1        0.1174
     17 C         138.8882  138.7529  165.4316 C.3     1  UNL1        0.1502
     18 O         138.5141  138.5242  165.4662 O.3     1  UNL1       -0.3532
     19 C         138.8882  138.7529  165.4316 C.3     1  UNL1        0.1502
     20 H         139.2666  140.6341  170.7297 H       1  UNL1        0.1466
     21 H         137.8124  139.7977  171.0351 H       1  UNL1        0.1466
     22 C         138.7062  137.8715  162.9587 C.3     1  UNL1        0.0438
     23 C         138.4520  138.6175  161.6825 C.3     1  UNL1        0.0036
     24 C         138.8740  138.9988  160.2945 C.3     1  UNL1        0.0001
     25 C         137.5897  139.5285  160.8600 C.3     1  UNL1        0.0001
@<TRIPOS>BOND
     1     1     2    1
     2     2     3    2
     3     3     4    1
     4     4     5    1
     5     5     6    1
     6     4     7    1
     7     7     8   ar
     8     8     9   ar
     9     9    10    1
    10     9    11   ar
    11    11    12   ar
    12    12    13   ar
    13    13    14    1
    14    14    15    1
    15    15    22    1
    16    22    23    1
    17    23    24    1
    18    24    25    1
    19    15    16    1
    20    16    17    1
    21    17    18    1
    22    18    19    1
    23     6     2    1
    24    13     7   ar
    25    25    23    1
    26    19    16    1
    27    16     4    1
    28     1    20    1
    29     1    21    1
@<TRIPOS>MOLECULE
*****
 25 29 0 0 0
SMALL
GASTEIGER

@<TRIPOS>ATOM
      1 N         144.2426  145.4599  162.8927 N.pl3   1  UNL1       -0.3133
      2 C         143.6017  144.4748  163.8246 C.2     1  UNL1        0.2770
      3 N         142.1321  144.1970  163.9392 N.2     1  UNL1       -0.2202
      4 C         141.9398  143.1449  164.9911 C.3     1  UNL1        0.1582
      5 C         143.2907  142.7725  165.5264 C.3     1  UNL1        0.2351
      6 O         144.3178  143.5944  164.8055 O.2     1  UNL1       -0.4478
      7 C         140.6634  143.6182  164.3612 C.ar    1  UNL1        0.0362
      8 C         140.6996  144.6697  163.2920 C.ar    1  UNL1        0.0073
      9 C         139.4231  145.1430  162.6622 C.ar    1  UNL1        0.0345
     10 BR        139.4592  146.1945  161.5931 Br      1  UNL1       -0.0490
     11 C         138.1106  144.5648  163.1015 C.ar    1  UNL1        0.0098
     12 C         138.0745  143.5134  164.1706 C.ar    1  UNL1        0.0371
     13 C         139.3509  143.0400  164.8005 C.ar    1  UNL1        0.1362
     14 O         139.3148  141.9886  165.8696 O.3     1  UNL1       -0.4792
     15 C         140.5912  141.5153  166.4995 C.3     1  UNL1        0.1726
     16 C         141.9038  142.0934  166.0602 C.3     1  UNL1        0.1174
     17 C         141.5476  142.2255  165.8845 C.3     1  UNL1        0.1502
     18 O         141.9220  142.0866  166.0692 O.3     1  UNL1       -0.3532
     19 C         141.5476  142.2255  165.8845 C.3     1  UNL1        0.1502
     20 H         143.6851  145.9949  162.2825 H       1  UNL1        0.1466
     21 H         145.2208  145.5716  162.8911 H       1  UNL1        0.1466
     22 C         140.5551  140.4637  167.5687 C.3     1  UNL1        0.0438
     23 C         139.8814  140.7485  168.8782 C.3     1  UNL1        0.0036
     24 C         138.9198  140.3497  169.9582 C.3     1  UNL1        0.0001
     25 C         139.6760  141.6406  170.0665 C.3     1  UNL1        0.0001
@<TRIPOS>BOND
     1     1     2    1
     2     2     3    2
     3     3     4    1
     4     4     5    1
     5     5     6    1
     6     4     7    1
     7     7     8   ar
     8     8     9   ar
     9     9    10    1
    10     9    11   ar
    11    11    12   ar
    12    12    13   ar
    13    13    14    1
    14    14    15    1
    15    15    22    1
    16    22    23    1
    17    23    24    1
    18    24    25    1
    19    15    16    1
    20    16    17    1
    21    17    18    1
    22    18    19    1
    23     6     2    1
    24    13     7   ar
    25    25    23    1
    26    19    16    1
    27    16     4    1
    28     1    20    1
    29     1    21    1
@<TRIPOS>MOLECULE
*****
 25 29 0 0 0
SMALL
GASTEIGER

@<TRIPOS>ATOM
      1 N         139.3308  146.1830  161.7055 N.pl3   1  UNL1       -0.3133
      2 C         139.0047  144.9807  162.5410 C.2     1  UNL1        0.2770
      3 N         139.9782  144.1859  163.3600 N.2     1  UNL1       -0.2202
      4 C         139.2230  143.0760  164.0294 C.3     1  UNL1        0.1582
      5 C         137.7829  143.1849  163.6240 C.3     1  UNL1        0.2351
      6 O         137.6480  144.3621  162.7041 O.2     1  UNL1       -0.4478
      7 C         140.6893  143.0933  164.3451 C.ar    1  UNL1        0.0362
      8 C         141.5730  144.1474  163.7467 C.ar    1  UNL1        0.0073
      9 C         143.0392  144.1648  164.0625 C.ar    1  UNL1        0.0345
     10 BR        143.9229  145.2188  163.4641 Br      1  UNL1       -0.0490
     11 C         143.6219  143.1280  164.9767 C.ar    1  UNL1        0.0098
     12 C         142.7382  142.0740  165.5750 C.ar    1  UNL1        0.0371
     13 C         141.2720  142.0566  165.2593 C.ar    1  UNL1        0.1362
     14 O         140.3883  141.0026  165.8577 O.3     1  UNL1       -0.4792
     15 C         138.9220  140.9852  165.5419 C.3     1  UNL1        0.1726
     16 C         138.3394  142.0219  164.6277 C.3     1  UNL1        0.1174
     17 C         138.7485  142.0268  164.7158 C.3     1  UNL1        0.1502
     18 O         138.3185  142.0217  164.6232 O.3     1  UNL1       -0.3532
     19 C         138.7485  142.0268  164.7158 C.3     1  UNL1        0.1502
     20 H         140.2564  146.5156  161.6617 H       1  UNL1        0.1466
     21 H         138.6193  146.6395  161.2009 H       1  UNL1        0.1466
     22 C         138.0384  139.9311  166.1403 C.3     1  UNL1        0.0438
     23 C         138.3031  138.4818  165.8583 C.3     1  UNL1        0.0036
     24 C         138.0526  137.0334  166.1572 C.3     1  UNL1        0.0001
     25 C         139.0121  137.4200  165.0710 C.3     1  UNL1        0.0001
@<TRIPOS>BOND
     1     1     2    1
     2     2     3    2
     3     3     4    1
     4     4     5    1
     5     5     6    1
     6     4     7    1
     7     7     8   ar
     8     8     9   ar
     9     9    10    1
    10     9    11   ar
    11    11    12   ar
    12    12    13   ar
    13    13    14    1
    14    14    15    1
    15    15    22    1
    16    22    23    1
    17    23    24    1
    18    24    25    1
    19    15    16    1
    20    16    17    1
    21    17    18    1
    22    18    19    1
    23     6     2    1
    24    13     7   ar
    25    25    23    1
    26    19    16    1
    27    16     4    1
    28     1    20    1
    29     1    21    1
@<TRIPOS>MOLECULE
*****
 25 29 0 0 0
SMALL
GASTEIGER

@<TRIPOS>ATOM
      1 N         137.3767  137.9650  167.3195 N.pl3   1  UNL1       -0.3133
      2 C         138.1309  138.9661  166.4956 C.2     1  UNL1        0.2770
      3 N         139.1828  139.9094  166.9996 N.2     1  UNL1       -0.2202
      4 C         139.6677  140.7261  165.8386 C.3     1  UNL1        0.1582
      5 C         138.9154  140.2877  164.6171 C.3     1  UNL1        0.2351
      6 O         137.9656  139.1999  165.0232 O.2     1  UNL1       -0.4478
      7 C         140.3369  141.0575  167.1394 C.ar    1  UNL1        0.0362
      8 C         139.9539  140.3212  168.3889 C.ar    1  UNL1        0.0073
      9 C         140.6231  140.6526  169.6898 C.ar    1  UNL1        0.0345
     10 BR        140.2401  139.9164  170.9392 Br      1  UNL1       -0.0490
     11 C         141.6755  141.7204  169.7411 C.ar    1  UNL1        0.0098
     12 C         142.0585  142.4566  168.4917 C.ar    1  UNL1        0.0371
     13 C         141.3892  142.1252  167.1908 C.ar    1  UNL1        0.1362
     14 O         141.7723  142.8615  165.9414 O.3     1  UNL1       -0.4792
     15 C         141.1030  142.5301  164.6405 C.3     1  UNL1        0.1726
     16 C         140.0507  141.4624  164.5891 C.3     1  UNL1        0.1174
     17 C         140.2374  141.5549  164.9520 C.3     1  UNL1        0.1502
     18 O         140.0411  141.4577  164.5705 O.3     1  UNL1       -0.3532
     19 C         140.2374  141.5549  164.9520 C.3     1  UNL1        0.1502
     20 H         137.5568  137.8857  168.2841 H       1  UNL1        0.1466
     21 H         136.7016  137.3872  166.8956 H       1  UNL1        0.1466
     22 C         141.4861  143.2664  163.3910 C.3     1  UNL1        0.0438
     23 C         142.7571  144.0618  163.3491 C.3     1  UNL1        0.0036
     24 C         143.6049  145.1842  163.8701 C.3     1  UNL1        0.0001
     25 C         144.1107  144.3172  162.7554 C.3     1  UNL1        0.0001
@<TRIPOS>BOND
     1     1     2    1
     2     2     3    2
     3     3     4    1
     4     4     5    1
     5     5     6    1
     6     4     7    1
     7     7     8   ar
     8     8     9   ar
     9     9    10    1
    10     9    11   ar
    11    11    12   ar
    12    12    13   ar
    13    13    14    1
    14    14    15    1
    15    15    22    1
    16    22    23    1
    17    23    24    1
    18    24    25    1
    19    15    16    1
    20    16    17    1
    21    17    18    1
    22    18    19    1
    23     6     2    1
    24    13     7   ar
    25    25    23    1
    26    19    16    1
    27    16     4    1
    28     1    20    1
    29     1    21    1
@<TRIPOS>MOLECULE
*****
 25 29 0 0 0
SMALL
GASTEIGER

@<TRIPOS>ATOM
      1 N         137.2753  138.4396  167.5641 N.pl3   1  UNL1       -0.3133
      2 C         138.5298  138.6202  166.7619 C.2     1  UNL1        0.2770
      3 N         139.6618  139.5472  167.0924 N.2     1  UNL1       -0.2202
      4 C         140.7043  139.4055  166.0231 C.3     1  UNL1        0.1582
      5 C         140.2165  138.3909  165.0319 C.3     1  UNL1        0.2351
      6 O         138.8725  137.9055  165.4885 O.2     1  UNL1       -0.4478
      7 C         141.0583  140.3957  167.0928 C.ar    1  UNL1        0.0362
      8 C         140.1106  140.6433  168.2289 C.ar    1  UNL1        0.0073
      9 C         140.4646  141.6335  169.2986 C.ar    1  UNL1        0.0345
     10 BR        139.5169  141.8812  170.4346 Br      1  UNL1       -0.0490
     11 C         141.7663  142.3760  169.2322 C.ar    1  UNL1        0.0098
     12 C         142.7139  142.1283  168.0962 C.ar    1  UNL1        0.0371
     13 C         142.3599  141.1381  167.0265 C.ar    1  UNL1        0.1362
     14 O         143.3076  140.8904  165.8905 O.3     1  UNL1       -0.4792
     15 C         142.9536  139.9002  164.8208 C.3     1  UNL1        0.1726
     16 C         141.6519  139.1578  164.8871 C.3     1  UNL1        0.1174
     17 C         141.7507  139.4340  165.1856 C.3     1  UNL1        0.1502
     18 O         141.6469  139.1436  164.8719 O.3     1  UNL1       -0.3532
     19 C         141.7507  139.4340  165.1856 C.3     1  UNL1        0.1502
     20 H         137.1409  138.9571  168.3908 H       1  UNL1        0.1466
     21 H         136.5863  137.8037  167.2639 H       1  UNL1        0.1466
     22 C         143.9013  139.6526  163.6848 C.3     1  UNL1        0.0438
     23 C         144.7163  140.7821  163.1281 C.3     1  UNL1        0.0036
     24 C         145.8584  141.7461  163.2559 C.3     1  UNL1        0.0001
     25 C         144.9859  141.7745  162.0361 C.3     1  UNL1        0.0001
@<TRIPOS>BOND
     1     1     2    1
     2     2     3    2
     3     3     4    1
     4     4     5    1
     5     5     6    1
     6     4     7    1
     7     7     8   ar
     8     8     9   ar
     9     9    10    1
    10     9    11   ar
    11    11    12   ar
    12    12    13   ar
    13    13    14    1
    14    14    15    1
    15    15    22    1
    16    22    23    1
    17    23    24    1
    18    24    25    1
    19    15    16    1
    20    16    17    1
    21    17    18    1
    22    18    19    1
    23     6     2    1
    24    13     7   ar
    25    25    23    1
    26    19    16    1
    27    16     4    1
    28     1    20    1
    29     1    21    1
@<TRIPOS>MOLECULE
*****
 25 29 0 0 0
SMALL
GASTEIGER

@<TRIPOS>ATOM
      1 N         139.1414  138.3007  161.0099 N.pl3   1  UNL1       -0.3133
      2 C         139.1675  138.6789  162.4611 C.2     1  UNL1        0.2770
      3 N         140.3963  138.8989  163.2929 N.2     1  UNL1       -0.2202
      4 C         139.9577  139.2596  164.6813 C.3     1  UNL1        0.1582
      5 C         138.4579  139.2625  164.7076 C.3     1  UNL1        0.2351
      6 O         137.9696  138.9036  163.3353 O.2     1  UNL1       -0.4478
      7 C         141.4465  139.2172  164.5035 C.ar    1  UNL1        0.0362
      8 C         142.0327  138.8704  163.1670 C.ar    1  UNL1        0.0073
      9 C         143.5215  138.8280  162.9892 C.ar    1  UNL1        0.0345
     10 BR        144.1076  138.4812  161.6527 Br      1  UNL1       -0.0490
     11 C         144.4242  139.1323  164.1479 C.ar    1  UNL1        0.0098
     12 C         143.8380  139.4790  165.4844 C.ar    1  UNL1        0.0371
     13 C         142.3492  139.5215  165.6622 C.ar    1  UNL1        0.1362
     14 O         141.7631  139.8682  166.9986 O.3     1  UNL1       -0.4792
     15 C         140.2742  139.9106  167.1764 C.3     1  UNL1        0.1726
     16 C         139.3716  139.6063  166.0178 C.3     1  UNL1        0.1174
     17 C         139.7869  139.5945  165.9682 C.3     1  UNL1        0.1502
     18 O         139.3503  139.6069  166.0203 O.3     1  UNL1       -0.3532
     19 C         139.7869  139.5945  165.9682 C.3     1  UNL1        0.1502
     20 H         139.9853  138.1749  160.5187 H       1  UNL1        0.1466
     21 H         138.2804  138.1782  160.5485 H       1  UNL1        0.1466
     22 C         139.6881  140.2574  168.5130 C.3     1  UNL1        0.0438
     23 C         139.9938  141.5830  169.1449 C.3     1  UNL1        0.0036
     24 C         140.1669  142.4280  170.3721 C.3     1  UNL1        0.0001
     25 C         140.3501  143.0339  169.0122 C.3     1  UNL1        0.0001
@<TRIPOS>BOND
     1     1     2    1
     2     2     3    2
     3     3     4    1
     4     4     5    1
     5     5     6    1
     6     4     7    1
     7     7     8   ar
     8     8     9   ar
     9     9    10    1
    10     9    11   ar
    11    11    12   ar
    12    12    13   ar
    13    13    14    1
    14    14    15    1
    15    15    22    1
    16    22    23    1
    17    23    24    1
    18    24    25    1
    19    15    16    1
    20    16    17    1
    21    17    18    1
    22    18    19    1
    23     6     2    1
    24    13     7   ar
    25    25    23    1
    26    19    16    1
    27    16     4    1
    28     1    20    1
    29     1    21    1
@<TRIPOS>MOLECULE
*****
 25 29 0 0 0
SMALL
GASTEIGER

@<TRIPOS>ATOM
      1 N         139.1776  145.4603  161.9783 N.pl3   1  UNL1       -0.3133
      2 C         139.1311  144.3942  163.0324 C.2     1  UNL1        0.2770
      3 N         140.3038  143.8659  163.8043 N.2     1  UNL1       -0.2202
      4 C         139.8013  142.8144  164.7488 C.3     1  UNL1        0.1582
      5 C         138.3181  142.6928  164.5605 C.3     1  UNL1        0.2351
      6 O         137.9040  143.6692  163.4996 O.2     1  UNL1       -0.4478
      7 C         141.2812  143.0467  164.8259 C.ar    1  UNL1        0.0362
      8 C         141.9269  144.0702  163.9394 C.ar    1  UNL1        0.0073
      9 C         143.4068  144.3025  164.0165 C.ar    1  UNL1        0.0345
     10 BR        144.0525  145.3259  163.1301 Br      1  UNL1       -0.0490
     11 C         144.2410  143.5114  164.9801 C.ar    1  UNL1        0.0098
     12 C         143.5953  142.4881  165.8665 C.ar    1  UNL1        0.0371
     13 C         142.1154  142.2557  165.7894 C.ar    1  UNL1        0.1362
     14 O         141.4697  141.2323  166.6758 O.3     1  UNL1       -0.4792
     15 C         139.9898  141.0000  166.5987 C.3     1  UNL1        0.1726
     16 C         139.1556  141.7910  165.6352 C.3     1  UNL1        0.1174
     17 C         139.5685  141.8558  165.6567 C.3     1  UNL1        0.1502
     18 O         139.1345  141.7877  165.6341 O.3     1  UNL1       -0.3532
     19 C         139.5685  141.8558  165.6567 C.3     1  UNL1        0.1502
     20 H         140.0359  145.8792  161.7394 H       1  UNL1        0.1466
     21 H         138.3498  145.7410  161.5253 H       1  UNL1        0.1466
     22 C         139.3441  139.9765  167.4851 C.3     1  UNL1        0.0438
     23 C         139.1976  140.2421  168.9541 C.3     1  UNL1        0.0036
     24 C         138.8203  139.7724  170.3278 C.3     1  UNL1        0.0001
     25 C         139.3211  141.1717  170.1248 C.3     1  UNL1        0.0001
@<TRIPOS>BOND
     1     1     2    1
     2     2     3    2
     3     3     4    1
     4     4     5    1
     5     5     6    1
     6     4     7    1
     7     7     8   ar
     8     8     9   ar
     9     9    10    1
    10     9    11   ar
    11    11    12   ar
    12    12    13   ar
    13    13    14    1
    14    14    15    1
    15    15    22    1
    16    22    23    1
    17    23    24    1
    18    24    25    1
    19    15    16    1
    20    16    17    1
    21    17    18    1
    22    18    19    1
    23     6     2    1
    24    13     7   ar
    25    25    23    1
    26    19    16    1
    27    16     4    1
    28     1    20    1
    29     1    21    1
