@<TRIPOS>MOLECULE
*****
 42 46 0 0 0
SMALL
GASTEIGER

@<TRIPOS>ATOM
      1 O         144.3287  144.6765  162.4023 O.2     1  UNL1       -0.2701
      2 C         143.0938  143.9167  162.0175 C.2     1  UNL1        0.2469
      3 N         143.1431  142.9256  160.8927 N.am    1  UNL1       -0.2985
      4 H         142.3327  142.4269  160.6402 H       1  UNL1        0.1498
      5 C         141.8098  144.1480  162.7576 C.2     1  UNL1        0.0665
      6 C         140.7607  145.0485  162.1760 C.2     1  UNL1        0.0931
      7 N         139.4766  145.2799  162.9161 N.am    1  UNL1       -0.1740
      8 C         139.2417  144.6107  164.2378 C.2     1  UNL1        0.2688
      9 O         137.9577  144.8421  164.9779 O.2     1  UNL1       -0.2680
     10 C         140.2909  143.7102  164.8195 C.2     1  UNL1        0.0533
     11 C         140.0561  143.0410  166.1413 C.2     1  UNL1        0.0239
     12 C         141.1052  142.1406  166.7229 C.2     1  UNL1        0.1184
     13 C         142.3892  141.9092  165.9828 C.2     1  UNL1       -0.0015
     14 C         142.6241  142.5784  164.6611 C.3     1  UNL1        0.0540
     15 C         141.5750  143.4788  164.0794 C.2     1  UNL1       -0.0076
     16 S         140.8704  141.4714  168.0447 S.O2    1  UNL1        0.0630
     17 O         141.2338  140.1480  167.4392 O.2     1  UNL1       -0.1528
     18 O         140.5070  142.7947  168.6502 O.2     1  UNL1       -0.1528
     19 N         140.6355  140.8022  169.3664 N.3     1  UNL1       -0.1554
     20 C         139.4264  140.3164  170.1093 C.3     1  UNL1        0.0973
     21 C         140.3034  139.8558  171.2357 C.3     1  UNL1        0.0383
     22 C         141.5126  140.3416  170.4928 C.3     1  UNL1        0.0973
     23 C         144.4271  142.6943  160.1526 C.3     1  UNL1        0.1204
     24 C         144.3978  142.2207  158.7296 C.3     1  UNL1        0.1459
     25 O         144.5930  143.1990  157.6094 O.3     1  UNL1       -0.3813
     26 H         144.7244  144.0876  157.9754 H       1  UNL1        0.2105
     27 C         144.1732  140.7689  158.4268 C.3     1  UNL1        0.1034
     28 N         143.0752  140.0191  159.1211 N.3     1  UNL1       -0.2704
     29 C         143.4110  138.9579  160.1266 C.3     1  UNL1        0.0759
     30 C         142.3130  138.2080  160.8209 C.3     1  UNL1        0.0609
     31 C         140.8790  138.5194  160.5097 C.3     1  UNL1        0.1687
     32 C         140.5431  139.5806  159.5042 C.3     1  UNL1        0.0609
     33 C         141.6412  140.3304  158.8099 C.3     1  UNL1        0.0759
     34 O         139.7810  137.7696  161.2040 O.3     1  UNL1       -0.4790
     35 C         139.3478  138.1784  162.5806 C.ar    1  UNL1        0.1393
     36 C         139.5476  137.2451  163.7378 C.ar    1  UNL1        0.0378
     37 C         139.1143  137.6539  165.1145 C.ar    1  UNL1        0.0154
     38 C         138.4813  138.9959  165.3340 C.ar    1  UNL1        0.0684
     39 CL        138.0481  139.4047  166.7107 Cl      1  UNL1       -0.0814
     40 C         138.2815  139.9292  164.1768 C.ar    1  UNL1        0.0712
     41 CL        137.6485  141.2713  164.3963 Cl      1  UNL1       -0.0813
     42 C         138.7148  139.5204  162.8002 C.ar    1  UNL1        0.0491
@<TRIPOS>BOND
     1     1     2    2
     2     2     3   am
     3     3    23    1
     4    23    24    1
     5    24    25    1
     6    24    27    1
     7    27    28    1
     8    28    29    1
     9    29    30    1
    10    30    31    1
    11    31    34    1
    12    34    35    1
    13    35    36   ar
    14    36    37   ar
    15    37    38   ar
    16    38    39    1
    17    38    40   ar
    18    40    41    1
    19    40    42   ar
    20    31    32    1
    21    32    33    1
    22     2     5    1
    23     5     6    1
    24     6     7    2
    25     7     8    1
    26     8     9    2
    27     8    10    1
    28    10    11    2
    29    11    12    1
    30    12    16    1
    31    16    17    2
    32    16    18    2
    33    16    19    1
    34    19    20    1
    35    20    21    1
    36    21    22    1
    37    12    13    2
    38    13    14    1
    39    14    15    1
    40    33    28    1
    41    15     5    2
    42    42    35   ar
    43    15    10    1
    44    22    19    1
    45     3     4    1
    46    25    26    1
@<TRIPOS>MOLECULE
*****
 42 46 0 0 0
SMALL
GASTEIGER

@<TRIPOS>ATOM
      1 O         144.7016  143.0222  160.8701 O.2     1  UNL1       -0.2701
      2 C         143.5350  142.1515  160.5079 C.2     1  UNL1        0.2469
      3 N         142.7562  142.4240  159.2553 N.am    1  UNL1       -0.2985
      4 H         141.9906  141.8526  159.0175 H       1  UNL1        0.1498
      5 C         143.1474  141.0083  161.3983 C.2     1  UNL1        0.0665
      6 C         143.2521  139.5984  160.8971 C.2     1  UNL1        0.0931
      7 N         142.8644  138.4552  161.7875 N.am    1  UNL1       -0.1740
      8 C         142.3721  138.7219  163.1791 C.2     1  UNL1        0.2688
      9 O         141.9845  137.5787  164.0695 O.2     1  UNL1       -0.2680
     10 C         142.2674  140.1318  163.6803 C.2     1  UNL1        0.0533
     11 C         141.7751  140.3985  165.0718 C.2     1  UNL1        0.0239
     12 C         141.6704  141.8084  165.5730 C.2     1  UNL1        0.1184
     13 C         142.0580  142.9516  164.6826 C.2     1  UNL1       -0.0015
     14 C         142.5504  142.6849  163.2910 C.3     1  UNL1        0.0540
     15 C         142.6551  141.2750  162.7899 C.2     1  UNL1       -0.0076
     16 S         141.1781  142.0752  166.9646 S.O2    1  UNL1        0.0630
     17 O         142.0657  140.9850  167.4876 O.2     1  UNL1       -0.1528
     18 O         140.2905  143.1654  166.4416 O.2     1  UNL1       -0.1528
     19 N         140.6858  142.3419  168.3562 N.3     1  UNL1       -0.1554
     20 C         139.8604  141.5833  169.3529 C.3     1  UNL1        0.0973
     21 C         139.9896  142.7190  170.3242 C.3     1  UNL1        0.0383
     22 C         140.8149  143.4776  169.3275 C.3     1  UNL1        0.0973
     23 C         143.1438  143.5672  158.3649 C.3     1  UNL1        0.1204
     24 C         142.1609  144.6646  158.0824 C.3     1  UNL1        0.1459
     25 O         142.6448  146.0682  157.8684 O.3     1  UNL1       -0.3813
     26 H         143.6114  146.0922  157.9457 H       1  UNL1        0.2105
     27 C         140.6941  144.3584  158.0141 C.3     1  UNL1        0.1034
     28 N         139.9605  143.9233  159.2480 N.3     1  UNL1       -0.2704
     29 C         140.1918  144.6347  160.5481 C.3     1  UNL1        0.0759
     30 C         139.4582  144.1996  161.7820 C.3     1  UNL1        0.0609
     31 C         138.4932  143.0531  161.7158 C.3     1  UNL1        0.1687
     32 C         138.2618  142.3417  160.4156 C.3     1  UNL1        0.0609
     33 C         138.9955  142.7768  159.1817 C.3     1  UNL1        0.0759
     34 O         137.7596  142.6180  162.9496 O.3     1  UNL1       -0.4790
     35 C         138.0413  141.2750  163.5553 C.ar    1  UNL1        0.1393
     36 C         137.9817  141.0959  165.0433 C.ar    1  UNL1        0.0378
     37 C         138.2634  139.7528  165.6490 C.ar    1  UNL1        0.0154
     38 C         138.6047  138.5889  164.7667 C.ar    1  UNL1        0.0684
     39 CL        138.8864  137.2458  165.3723 Cl      1  UNL1       -0.0814
     40 C         138.6643  138.7679  163.2786 C.ar    1  UNL1        0.0712
     41 CL        139.0056  137.6039  162.3962 Cl      1  UNL1       -0.0813
     42 C         138.3826  140.1110  162.6729 C.ar    1  UNL1        0.0491
@<TRIPOS>BOND
     1     1     2    2
     2     2     3   am
     3     3    23    1
     4    23    24    1
     5    24    25    1
     6    24    27    1
     7    27    28    1
     8    28    29    1
     9    29    30    1
    10    30    31    1
    11    31    34    1
    12    34    35    1
    13    35    36   ar
    14    36    37   ar
    15    37    38   ar
    16    38    39    1
    17    38    40   ar
    18    40    41    1
    19    40    42   ar
    20    31    32    1
    21    32    33    1
    22     2     5    1
    23     5     6    1
    24     6     7    2
    25     7     8    1
    26     8     9    2
    27     8    10    1
    28    10    11    2
    29    11    12    1
    30    12    16    1
    31    16    17    2
    32    16    18    2
    33    16    19    1
    34    19    20    1
    35    20    21    1
    36    21    22    1
    37    12    13    2
    38    13    14    1
    39    14    15    1
    40    33    28    1
    41    15     5    2
    42    42    35   ar
    43    15    10    1
    44    22    19    1
    45     3     4    1
    46    25    26    1
@<TRIPOS>MOLECULE
*****
 42 46 0 0 0
SMALL
GASTEIGER

@<TRIPOS>ATOM
      1 O         140.7927  145.5009  160.7882 O.2     1  UNL1       -0.2701
      2 C         140.6347  144.0231  160.5850 C.2     1  UNL1        0.2469
      3 N         141.3020  143.3503  159.4222 N.am    1  UNL1       -0.2985
      4 H         141.1983  142.3804  159.2889 H       1  UNL1        0.1498
      5 C         139.8094  143.2181  161.5447 C.2     1  UNL1        0.0665
      6 C         138.4362  142.7600  161.1518 C.2     1  UNL1        0.0931
      7 N         137.6109  141.9551  162.1115 N.am    1  UNL1       -0.1740
      8 C         138.1589  141.6082  163.4640 C.2     1  UNL1        0.2688
      9 O         137.3336  140.8033  164.4237 O.2     1  UNL1       -0.2680
     10 C         139.5321  142.0663  163.8570 C.2     1  UNL1        0.0533
     11 C         140.0801  141.7195  165.2095 C.2     1  UNL1        0.0239
     12 C         141.4533  142.1776  165.6024 C.2     1  UNL1        0.1184
     13 C         142.2786  142.9825  164.6427 C.2     1  UNL1       -0.0015
     14 C         141.7306  143.3294  163.2902 C.3     1  UNL1        0.0540
     15 C         140.3574  142.8713  162.8973 C.2     1  UNL1       -0.0076
     16 S         142.0013  141.8307  166.9550 S.O2    1  UNL1        0.0630
     17 O         140.6381  141.3833  167.3925 O.2     1  UNL1       -0.1528
     18 O         143.3645  142.2782  166.5175 O.2     1  UNL1       -0.1528
     19 N         142.5492  141.4839  168.3075 N.3     1  UNL1       -0.1554
     20 C         142.6313  140.2318  169.1294 C.3     1  UNL1        0.0973
     21 C         143.3241  140.9933  170.2204 C.3     1  UNL1        0.0383
     22 C         143.2420  142.2454  169.3984 C.3     1  UNL1        0.0973
     23 C         142.1272  144.1553  158.4626 C.3     1  UNL1        0.1204
     24 C         143.1532  143.4771  157.6037 C.3     1  UNL1        0.1459
     25 O         142.9608  143.4093  156.1176 O.3     1  UNL1       -0.3813
     26 H         142.1295  143.8482  155.8788 H       1  UNL1        0.2105
     27 C         144.3714  142.8667  158.2309 C.3     1  UNL1        0.1034
     28 N         144.2245  141.7603  159.2330 N.3     1  UNL1       -0.2704
     29 C         143.8341  140.3848  158.7797 C.3     1  UNL1        0.0759
     30 C         143.6873  139.2784  159.7818 C.3     1  UNL1        0.0609
     31 C         143.9309  139.5475  161.2373 C.3     1  UNL1        0.1687
     32 C         144.3213  140.9230  161.6906 C.3     1  UNL1        0.0609
     33 C         144.4681  142.0295  160.6884 C.3     1  UNL1        0.0759
     34 O         143.7840  138.4411  162.2394 O.3     1  UNL1       -0.4790
     35 C         142.5332  138.3337  163.0603 C.ar    1  UNL1        0.1393
     36 C         142.6005  138.4761  164.5520 C.ar    1  UNL1        0.0378
     37 C         141.3496  138.3688  165.3728 C.ar    1  UNL1        0.0154
     38 C         140.0315  138.1191  164.7020 C.ar    1  UNL1        0.0684
     39 CL        138.7806  138.0118  165.5229 Cl      1  UNL1       -0.0814
     40 C         139.9642  137.9768  163.2104 C.ar    1  UNL1        0.0712
     41 CL        138.6459  137.7271  162.5395 Cl      1  UNL1       -0.0813
     42 C         141.2150  138.0841  162.3895 C.ar    1  UNL1        0.0491
@<TRIPOS>BOND
     1     1     2    2
     2     2     3   am
     3     3    23    1
     4    23    24    1
     5    24    25    1
     6    24    27    1
     7    27    28    1
     8    28    29    1
     9    29    30    1
    10    30    31    1
    11    31    34    1
    12    34    35    1
    13    35    36   ar
    14    36    37   ar
    15    37    38   ar
    16    38    39    1
    17    38    40   ar
    18    40    41    1
    19    40    42   ar
    20    31    32    1
    21    32    33    1
    22     2     5    1
    23     5     6    1
    24     6     7    2
    25     7     8    1
    26     8     9    2
    27     8    10    1
    28    10    11    2
    29    11    12    1
    30    12    16    1
    31    16    17    2
    32    16    18    2
    33    16    19    1
    34    19    20    1
    35    20    21    1
    36    21    22    1
    37    12    13    2
    38    13    14    1
    39    14    15    1
    40    33    28    1
    41    15     5    2
    42    42    35   ar
    43    15    10    1
    44    22    19    1
    45     3     4    1
    46    25    26    1
@<TRIPOS>MOLECULE
*****
 42 46 0 0 0
SMALL
GASTEIGER

@<TRIPOS>ATOM
      1 O         139.6524  145.7878  161.4194 O.2     1  UNL1       -0.2701
      2 C         139.6129  144.4181  160.8090 C.2     1  UNL1        0.2469
      3 N         140.0380  144.2193  159.3844 N.am    1  UNL1       -0.2985
      4 H         140.0120  143.3203  158.9838 H       1  UNL1        0.1498
      5 C         139.1481  143.2473  161.6234 C.2     1  UNL1        0.0665
      6 C         138.0176  142.3930  161.1315 C.2     1  UNL1        0.0931
      7 N         137.5529  141.2222  161.9459 N.am    1  UNL1       -0.1740
      8 C         138.2187  140.9057  163.2522 C.2     1  UNL1        0.2688
      9 O         137.7540  139.7349  164.0666 O.2     1  UNL1       -0.2680
     10 C         139.3493  141.7600  163.7442 C.2     1  UNL1        0.0533
     11 C         140.0151  141.4435  165.0505 C.2     1  UNL1        0.0239
     12 C         141.1457  142.2978  165.5424 C.2     1  UNL1        0.1184
     13 C         141.6104  143.4686  164.7280 C.2     1  UNL1       -0.0015
     14 C         140.9446  143.7851  163.4217 C.3     1  UNL1        0.0540
     15 C         139.8140  142.9308  162.9298 C.2     1  UNL1       -0.0076
     16 S         141.8116  141.9813  166.8488 S.O2    1  UNL1        0.0630
     17 O         140.4807  141.6217  167.4399 O.2     1  UNL1       -0.1528
     18 O         143.1424  142.3409  166.2576 O.2     1  UNL1       -0.1528
     19 N         142.4774  141.6648  168.1551 N.3     1  UNL1       -0.1554
     20 C         142.5913  140.4439  169.0191 C.3     1  UNL1        0.0973
     21 C         143.4190  141.2172  170.0025 C.3     1  UNL1        0.0383
     22 C         143.3050  142.4380  169.1385 C.3     1  UNL1        0.0973
     23 C         140.5027  145.3901  158.5700 C.3     1  UNL1        0.1204
     24 C         141.7704  145.2940  157.7738 C.3     1  UNL1        0.1459
     25 O         142.6974  146.4705  157.6946 O.3     1  UNL1       -0.3813
     26 H         142.3311  147.2060  158.2102 H       1  UNL1        0.2105
     27 C         142.1110  144.0212  157.0568 C.3     1  UNL1        0.1034
     28 N         142.6097  142.8358  157.8288 N.3     1  UNL1       -0.2704
     29 C         143.8637  142.9456  158.6445 C.3     1  UNL1        0.0759
     30 C         144.3624  141.7602  159.4166 C.3     1  UNL1        0.0609
     31 C         143.6071  140.4650  159.3729 C.3     1  UNL1        0.1687
     32 C         142.3531  140.3551  158.5572 C.3     1  UNL1        0.0609
     33 C         141.8544  141.5406  157.7851 C.3     1  UNL1        0.0759
     34 O         144.1058  139.2796  160.1449 O.3     1  UNL1       -0.4790
     35 C         143.7156  139.1026  161.5824 C.ar    1  UNL1        0.1393
     36 C         144.4093  139.8945  162.6508 C.ar    1  UNL1        0.0378
     37 C         144.0191  139.7175  164.0884 C.ar    1  UNL1        0.0154
     38 C         142.9352  138.7486  164.4574 C.ar    1  UNL1        0.0684
     39 CL        142.5450  138.5716  165.8949 Cl      1  UNL1       -0.0814
     40 C         142.2415  137.9567  163.3890 C.ar    1  UNL1        0.0712
     41 CL        141.1575  136.9877  163.7581 Cl      1  UNL1       -0.0813
     42 C         142.6317  138.1336  161.9515 C.ar    1  UNL1        0.0491
@<TRIPOS>BOND
     1     1     2    2
     2     2     3   am
     3     3    23    1
     4    23    24    1
     5    24    25    1
     6    24    27    1
     7    27    28    1
     8    28    29    1
     9    29    30    1
    10    30    31    1
    11    31    34    1
    12    34    35    1
    13    35    36   ar
    14    36    37   ar
    15    37    38   ar
    16    38    39    1
    17    38    40   ar
    18    40    41    1
    19    40    42   ar
    20    31    32    1
    21    32    33    1
    22     2     5    1
    23     5     6    1
    24     6     7    2
    25     7     8    1
    26     8     9    2
    27     8    10    1
    28    10    11    2
    29    11    12    1
    30    12    16    1
    31    16    17    2
    32    16    18    2
    33    16    19    1
    34    19    20    1
    35    20    21    1
    36    21    22    1
    37    12    13    2
    38    13    14    1
    39    14    15    1
    40    33    28    1
    41    15     5    2
    42    42    35   ar
    43    15    10    1
    44    22    19    1
    45     3     4    1
    46    25    26    1
@<TRIPOS>MOLECULE
*****
 42 46 0 0 0
SMALL
GASTEIGER

@<TRIPOS>ATOM
      1 O         141.8690  145.1996  160.2631 O.2     1  UNL1       -0.2701
      2 C         142.2189  143.7496  160.1046 C.2     1  UNL1        0.2469
      3 N         141.7113  142.9806  158.9211 N.am    1  UNL1       -0.2985
      4 H         141.9409  142.0289  158.8171 H       1  UNL1        0.1498
      5 C         143.0764  143.0686  161.1298 C.2     1  UNL1        0.0665
      6 C         144.4214  142.5286  160.7434 C.2     1  UNL1        0.0931
      7 N         145.2789  141.8476  161.7686 N.am    1  UNL1       -0.1740
      8 C         144.7915  141.7067  163.1801 C.2     1  UNL1        0.2688
      9 O         145.6490  141.0258  164.2053 O.2     1  UNL1       -0.2680
     10 C         143.4465  142.2468  163.5666 C.2     1  UNL1        0.0533
     11 C         142.9591  142.1060  164.9781 C.2     1  UNL1        0.0239
     12 C         141.6141  142.6460  165.3645 C.2     1  UNL1        0.1184
     13 C         140.7566  143.3270  164.3393 C.2     1  UNL1       -0.0015
     14 C         141.2440  143.4679  162.9278 C.3     1  UNL1        0.0540
     15 C         142.5889  142.9278  162.5414 C.2     1  UNL1       -0.0076
     16 S         141.1266  142.5052  166.7761 S.O2    1  UNL1        0.0630
     17 O         139.7155  142.7063  166.3088 O.2     1  UNL1       -0.1528
     18 O         142.5376  142.3040  167.2434 O.2     1  UNL1       -0.1528
     19 N         140.6391  142.3643  168.1876 N.3     1  UNL1       -0.1554
     20 C         140.5534  143.2755  169.3761 C.3     1  UNL1        0.0973
     21 C         139.9496  142.1652  170.1839 C.3     1  UNL1        0.0383
     22 C         140.0352  141.2540  168.9954 C.3     1  UNL1        0.0973
     23 C         140.8538  143.6615  157.8959 C.3     1  UNL1        0.1204
     24 C         139.7808  142.8915  157.1846 C.3     1  UNL1        0.1459
     25 O         140.0361  142.3425  155.8122 O.3     1  UNL1       -0.3813
     26 H         140.9364  142.5729  155.5341 H       1  UNL1        0.2105
     27 C         138.4526  142.6706  157.8456 C.3     1  UNL1        0.1034
     28 N         138.3697  141.8765  159.1154 N.3     1  UNL1       -0.2704
     29 C         138.3851  142.5781  160.4411 C.3     1  UNL1        0.0759
     30 C         138.3022  141.7840  161.7110 C.3     1  UNL1        0.0609
     31 C         138.2038  140.2883  161.6551 C.3     1  UNL1        0.1687
     32 C         138.1884  139.5866  160.3294 C.3     1  UNL1        0.0609
     33 C         138.2713  140.3808  159.0596 C.3     1  UNL1        0.0759
     34 O         138.1209  139.4942  162.9250 O.3     1  UNL1       -0.4790
     35 C         139.3561  139.2541  163.7414 C.ar    1  UNL1        0.1393
     36 C         139.2843  139.2927  165.2392 C.ar    1  UNL1        0.0378
     37 C         140.5195  139.0526  166.0557 C.ar    1  UNL1        0.0154
     38 C         141.8265  138.7739  165.3744 C.ar    1  UNL1        0.0684
     39 CL        143.0617  138.5339  166.1909 Cl      1  UNL1       -0.0814
     40 C         141.8982  138.7353  163.8766 C.ar    1  UNL1        0.0712
     41 CL        143.2052  138.4566  163.1953 Cl      1  UNL1       -0.0813
     42 C         140.6630  138.9754  163.0602 C.ar    1  UNL1        0.0491
@<TRIPOS>BOND
     1     1     2    2
     2     2     3   am
     3     3    23    1
     4    23    24    1
     5    24    25    1
     6    24    27    1
     7    27    28    1
     8    28    29    1
     9    29    30    1
    10    30    31    1
    11    31    34    1
    12    34    35    1
    13    35    36   ar
    14    36    37   ar
    15    37    38   ar
    16    38    39    1
    17    38    40   ar
    18    40    41    1
    19    40    42   ar
    20    31    32    1
    21    32    33    1
    22     2     5    1
    23     5     6    1
    24     6     7    2
    25     7     8    1
    26     8     9    2
    27     8    10    1
    28    10    11    2
    29    11    12    1
    30    12    16    1
    31    16    17    2
    32    16    18    2
    33    16    19    1
    34    19    20    1
    35    20    21    1
    36    21    22    1
    37    12    13    2
    38    13    14    1
    39    14    15    1
    40    33    28    1
    41    15     5    2
    42    42    35   ar
    43    15    10    1
    44    22    19    1
    45     3     4    1
    46    25    26    1
@<TRIPOS>MOLECULE
*****
 42 46 0 0 0
SMALL
GASTEIGER

@<TRIPOS>ATOM
      1 O         142.3920  141.5455  161.3622 O.2     1  UNL1       -0.2701
      2 C         141.9580  142.9785  161.2713 C.2     1  UNL1        0.2469
      3 N         142.4034  143.8253  160.1161 N.am    1  UNL1       -0.2985
      4 H         142.1185  144.7658  160.0565 H       1  UNL1        0.1498
      5 C         141.0785  143.5647  162.3357 C.2     1  UNL1        0.0665
      6 C         140.0736  144.6203  161.9810 C.2     1  UNL1        0.0931
      7 N         139.1941  145.2065  163.0454 N.am    1  UNL1       -0.1740
      8 C         139.3195  144.7371  164.4645 C.2     1  UNL1        0.2688
      9 O         138.4400  145.3233  165.5289 O.2     1  UNL1       -0.2680
     10 C         140.3244  143.6814  164.8193 C.2     1  UNL1        0.0533
     11 C         140.4498  143.2120  166.2383 C.2     1  UNL1        0.0239
     12 C         141.4547  142.1564  166.5931 C.2     1  UNL1        0.1184
     13 C         142.3342  141.5702  165.5287 C.2     1  UNL1       -0.0015
     14 C         142.2088  142.0396  164.1096 C.3     1  UNL1        0.0540
     15 C         141.2039  143.0952  163.7549 C.2     1  UNL1       -0.0076
     16 S         141.5801  141.6869  168.0122 S.O2    1  UNL1        0.0630
     17 O         140.7489  142.8485  168.4699 O.2     1  UNL1       -0.1528
     18 O         142.4114  140.5253  167.5545 O.2     1  UNL1       -0.1528
     19 N         141.7055  141.2175  169.4313 N.3     1  UNL1       -0.1554
     20 C         141.8798  141.8915  170.7600 C.3     1  UNL1        0.0973
     21 C         141.8829  140.5536  171.4383 C.3     1  UNL1        0.0383
     22 C         141.7086  139.8796  170.1096 C.3     1  UNL1        0.0973
     23 C         143.2829  143.2391  159.0517 C.3     1  UNL1        0.1204
     24 C         142.8852  143.3428  157.6091 C.3     1  UNL1        0.1459
     25 O         143.9270  143.5979  156.5605 O.3     1  UNL1       -0.3813
     26 H         144.7982  143.6696  156.9809 H       1  UNL1        0.2105
     27 C         141.4458  143.1915  157.2151 C.3     1  UNL1        0.1034
     28 N         140.5037  142.4258  158.0960 N.3     1  UNL1       -0.2704
     29 C         139.3290  143.1194  158.7198 C.3     1  UNL1        0.0759
     30 C         138.3869  142.3537  159.6006 C.3     1  UNL1        0.0609
     31 C         138.6194  140.8942  159.8578 C.3     1  UNL1        0.1687
     32 C         139.7940  140.2006  159.2340 C.3     1  UNL1        0.0609
     33 C         140.7362  140.9664  158.3531 C.3     1  UNL1        0.0759
     34 O         137.6772  140.1285  160.7386 O.3     1  UNL1       -0.4790
     35 C         137.9455  140.0225  162.2106 C.ar    1  UNL1        0.1393
     36 C         137.6826  141.1959  163.1073 C.ar    1  UNL1        0.0378
     37 C         137.9509  141.0899  164.5793 C.ar    1  UNL1        0.0154
     38 C         138.4821  139.8106  165.1546 C.ar    1  UNL1        0.0684
     39 CL        138.7504  139.7046  166.6266 Cl      1  UNL1       -0.0814
     40 C         138.7451  138.6372  164.2580 C.ar    1  UNL1        0.0712
     41 CL        139.2764  137.3578  164.8333 Cl      1  UNL1       -0.0813
     42 C         138.4768  138.7432  162.7860 C.ar    1  UNL1        0.0491
@<TRIPOS>BOND
     1     1     2    2
     2     2     3   am
     3     3    23    1
     4    23    24    1
     5    24    25    1
     6    24    27    1
     7    27    28    1
     8    28    29    1
     9    29    30    1
    10    30    31    1
    11    31    34    1
    12    34    35    1
    13    35    36   ar
    14    36    37   ar
    15    37    38   ar
    16    38    39    1
    17    38    40   ar
    18    40    41    1
    19    40    42   ar
    20    31    32    1
    21    32    33    1
    22     2     5    1
    23     5     6    1
    24     6     7    2
    25     7     8    1
    26     8     9    2
    27     8    10    1
    28    10    11    2
    29    11    12    1
    30    12    16    1
    31    16    17    2
    32    16    18    2
    33    16    19    1
    34    19    20    1
    35    20    21    1
    36    21    22    1
    37    12    13    2
    38    13    14    1
    39    14    15    1
    40    33    28    1
    41    15     5    2
    42    42    35   ar
    43    15    10    1
    44    22    19    1
    45     3     4    1
    46    25    26    1
@<TRIPOS>MOLECULE
*****
 42 46 0 0 0
SMALL
GASTEIGER

@<TRIPOS>ATOM
      1 O         144.3260  139.6284  160.8996 O.2     1  UNL1       -0.2701
      2 C         143.5161  140.7691  160.3581 C.2     1  UNL1        0.2469
      3 N         143.0848  140.7672  158.9215 N.am    1  UNL1       -0.2985
      4 H         142.5533  141.5158  158.5662 H       1  UNL1        0.1498
      5 C         143.1375  141.9115  161.2534 C.2     1  UNL1        0.0665
      6 C         143.2561  143.3228  160.7593 C.2     1  UNL1        0.0931
      7 N         142.8775  144.4652  161.6545 N.am    1  UNL1       -0.1740
      8 C         142.3804  144.1964  163.0440 C.2     1  UNL1        0.2688
      9 O         142.0018  145.3388  163.9393 O.2     1  UNL1       -0.2680
     10 C         142.2619  142.7850  163.5382 C.2     1  UNL1        0.0533
     11 C         141.7648  142.5162  164.9276 C.2     1  UNL1        0.0239
     12 C         141.6462  141.1049  165.4218 C.2     1  UNL1        0.1184
     13 C         142.0248  139.9625  164.5265 C.2     1  UNL1       -0.0015
     14 C         142.5219  140.2313  163.1371 C.3     1  UNL1        0.0540
     15 C         142.6404  141.6426  162.6429 C.2     1  UNL1       -0.0076
     16 S         141.1491  140.8360  166.8113 S.O2    1  UNL1        0.0630
     17 O         140.9279  139.3963  166.4535 O.2     1  UNL1       -0.1528
     18 O         141.3703  142.2758  167.1691 O.2     1  UNL1       -0.1528
     19 N         140.6520  140.5671  168.2007 N.3     1  UNL1       -0.1554
     20 C         139.3250  140.2101  168.8019 C.3     1  UNL1        0.0973
     21 C         139.9490  140.1868  170.1657 C.3     1  UNL1        0.0383
     22 C         141.2761  140.5439  169.5646 C.3     1  UNL1        0.0973
     23 C         143.4634  139.6248  158.0262 C.3     1  UNL1        0.1204
     24 C         142.4065  138.9030  157.2438 C.3     1  UNL1        0.1459
     25 O         142.3766  139.0096  155.7479 O.3     1  UNL1       -0.3813
     26 H         143.1037  139.5782  155.4497 H       1  UNL1        0.2105
     27 C         141.3796  138.0746  157.9574 C.3     1  UNL1        0.1034
     28 N         140.3551  138.7378  158.8294 N.3     1  UNL1       -0.2704
     29 C         139.2270  139.5075  158.2089 C.3     1  UNL1        0.0759
     30 C         138.2026  140.1707  159.0810 C.3     1  UNL1        0.0609
     31 C         138.3061  140.0641  160.5737 C.3     1  UNL1        0.1687
     32 C         139.4341  139.2944  161.1942 C.3     1  UNL1        0.0609
     33 C         140.4586  138.6312  160.3220 C.3     1  UNL1        0.0759
     34 O         137.2816  140.7273  161.4458 O.3     1  UNL1       -0.4790
     35 C         137.6980  141.7964  162.4120 C.ar    1  UNL1        0.1393
     36 C         137.6550  141.5317  163.8878 C.ar    1  UNL1        0.0378
     37 C         138.0714  142.6009  164.8540 C.ar    1  UNL1        0.0154
     38 C         138.5308  143.9347  164.3444 C.ar    1  UNL1        0.0684
     39 CL        138.9473  145.0038  165.3106 Cl      1  UNL1       -0.0814
     40 C         138.5738  144.1994  162.8686 C.ar    1  UNL1        0.0712
     41 CL        139.0333  145.5333  162.3589 Cl      1  UNL1       -0.0813
     42 C         138.1574  143.1303  161.9024 C.ar    1  UNL1        0.0491
@<TRIPOS>BOND
     1     1     2    2
     2     2     3   am
     3     3    23    1
     4    23    24    1
     5    24    25    1
     6    24    27    1
     7    27    28    1
     8    28    29    1
     9    29    30    1
    10    30    31    1
    11    31    34    1
    12    34    35    1
    13    35    36   ar
    14    36    37   ar
    15    37    38   ar
    16    38    39    1
    17    38    40   ar
    18    40    41    1
    19    40    42   ar
    20    31    32    1
    21    32    33    1
    22     2     5    1
    23     5     6    1
    24     6     7    2
    25     7     8    1
    26     8     9    2
    27     8    10    1
    28    10    11    2
    29    11    12    1
    30    12    16    1
    31    16    17    2
    32    16    18    2
    33    16    19    1
    34    19    20    1
    35    20    21    1
    36    21    22    1
    37    12    13    2
    38    13    14    1
    39    14    15    1
    40    33    28    1
    41    15     5    2
    42    42    35   ar
    43    15    10    1
    44    22    19    1
    45     3     4    1
    46    25    26    1
@<TRIPOS>MOLECULE
*****
 42 46 0 0 0
SMALL
GASTEIGER

@<TRIPOS>ATOM
      1 O         144.4000  137.7953  161.3725 O.2     1  UNL1       -0.2701
      2 C         143.6848  139.1005  161.1850 C.2     1  UNL1        0.2469
      3 N         142.7417  139.2801  160.0326 N.am    1  UNL1       -0.2985
      4 H         142.2723  140.1368  159.9096 H       1  UNL1        0.1498
      5 C         143.9128  140.2259  162.1501 C.2     1  UNL1        0.0665
      6 C         144.7836  141.3834  161.7603 C.2     1  UNL1        0.0931
      7 N         145.0115  142.5088  162.7254 N.am    1  UNL1       -0.1740
      8 C         144.3688  142.4768  164.0803 C.2     1  UNL1        0.2688
      9 O         144.5968  143.6023  165.0453 O.2     1  UNL1       -0.2680
     10 C         143.4979  141.3193  164.4701 C.2     1  UNL1        0.0533
     11 C         142.8552  141.2873  165.8250 C.2     1  UNL1        0.0239
     12 C         141.9844  140.1299  166.2148 C.2     1  UNL1        0.1184
     13 C         141.7564  139.0044  165.2498 C.2     1  UNL1       -0.0015
     14 C         142.3992  139.0364  163.8949 C.3     1  UNL1        0.0540
     15 C         143.2699  140.1939  163.5051 C.2     1  UNL1       -0.0076
     16 S         141.3416  140.0978  167.5698 S.O2    1  UNL1        0.0630
     17 O         139.9924  140.2551  166.9334 O.2     1  UNL1       -0.1528
     18 O         142.6907  139.9406  168.2062 O.2     1  UNL1       -0.1528
     19 N         140.6987  140.0658  168.9246 N.3     1  UNL1       -0.1554
     20 C         141.1488  139.6832  170.3034 C.3     1  UNL1        0.0973
     21 C         139.7896  140.0205  170.8407 C.3     1  UNL1        0.0383
     22 C         139.3395  140.4031  169.4620 C.3     1  UNL1        0.0973
     23 C         142.5137  138.1547  159.0675 C.3     1  UNL1        0.1204
     24 C         142.4199  138.4351  157.5969 C.3     1  UNL1        0.1459
     25 O         143.5158  137.9861  156.6764 O.3     1  UNL1       -0.3813
     26 H         144.2038  137.5338  157.1892 H       1  UNL1        0.2105
     27 C         141.2302  139.1646  157.0469 C.3     1  UNL1        0.1034
     28 N         140.4535  140.1013  157.9239 N.3     1  UNL1       -0.2704
     29 C         140.8523  141.5441  158.0190 C.3     1  UNL1        0.0759
     30 C         140.0756  142.4808  158.8960 C.3     1  UNL1        0.0609
     31 C         138.8999  141.9746  159.6781 C.3     1  UNL1        0.1687
     32 C         138.5010  140.5318  159.5831 C.3     1  UNL1        0.0609
     33 C         139.2778  139.5951  158.7060 C.3     1  UNL1        0.0759
     34 O         138.1231  142.9113  160.5551 O.3     1  UNL1       -0.4790
     35 C         138.5132  143.0901  161.9924 C.ar    1  UNL1        0.1393
     36 C         137.6231  142.5691  163.0815 C.ar    1  UNL1        0.0378
     37 C         138.0132  142.7478  164.5188 C.ar    1  UNL1        0.0154
     38 C         139.2934  143.4476  164.8671 C.ar    1  UNL1        0.0684
     39 CL        139.6835  143.6263  166.3044 Cl      1  UNL1       -0.0814
     40 C         140.1836  143.9686  163.7780 C.ar    1  UNL1        0.0712
     41 CL        141.4639  144.6684  164.1261 Cl      1  UNL1       -0.0813
     42 C         139.7935  143.7898  162.3406 C.ar    1  UNL1        0.0491
@<TRIPOS>BOND
     1     1     2    2
     2     2     3   am
     3     3    23    1
     4    23    24    1
     5    24    25    1
     6    24    27    1
     7    27    28    1
     8    28    29    1
     9    29    30    1
    10    30    31    1
    11    31    34    1
    12    34    35    1
    13    35    36   ar
    14    36    37   ar
    15    37    38   ar
    16    38    39    1
    17    38    40   ar
    18    40    41    1
    19    40    42   ar
    20    31    32    1
    21    32    33    1
    22     2     5    1
    23     5     6    1
    24     6     7    2
    25     7     8    1
    26     8     9    2
    27     8    10    1
    28    10    11    2
    29    11    12    1
    30    12    16    1
    31    16    17    2
    32    16    18    2
    33    16    19    1
    34    19    20    1
    35    20    21    1
    36    21    22    1
    37    12    13    2
    38    13    14    1
    39    14    15    1
    40    33    28    1
    41    15     5    2
    42    42    35   ar
    43    15    10    1
    44    22    19    1
    45     3     4    1
    46    25    26    1
@<TRIPOS>MOLECULE
*****
 42 46 0 0 0
SMALL
GASTEIGER

@<TRIPOS>ATOM
      1 O         144.3459  138.8855  160.5673 O.2     1  UNL1       -0.2701
      2 C         143.3190  139.9788  160.5503 C.2     1  UNL1        0.2469
      3 N         142.1171  139.8651  159.6601 N.am    1  UNL1       -0.2985
      4 H         141.4431  140.5827  159.6489 H       1  UNL1        0.1498
      5 C         143.4940  141.1858  161.4235 C.2     1  UNL1        0.0665
      6 C         143.8807  142.5015  160.8157 C.2     1  UNL1        0.0931
      7 N         144.0557  143.7085  161.6890 N.am    1  UNL1       -0.1740
      8 C         143.8441  143.5998  163.1699 C.2     1  UNL1        0.2688
      9 O         144.0191  144.8068  164.0432 O.2     1  UNL1       -0.2680
     10 C         143.4574  142.2841  163.7778 C.2     1  UNL1        0.0533
     11 C         143.2458  142.1754  165.2588 C.2     1  UNL1        0.0239
     12 C         142.8591  140.8597  165.8665 C.2     1  UNL1        0.1184
     13 C         142.6840  139.6527  164.9933 C.2     1  UNL1       -0.0015
     14 C         142.8957  139.7614  163.5123 C.3     1  UNL1        0.0540
     15 C         143.2823  141.0771  162.9046 C.2     1  UNL1       -0.0076
     16 S         142.6474  140.7510  167.3476 S.O2    1  UNL1        0.0630
     17 O         142.1086  139.3626  167.1686 O.2     1  UNL1       -0.1528
     18 O         143.1862  142.1393  167.5266 O.2     1  UNL1       -0.1528
     19 N         142.4358  140.6422  168.8285 N.3     1  UNL1       -0.1554
     20 C         143.1291  141.1871  170.0419 C.3     1  UNL1        0.0973
     21 C         142.1365  140.4883  170.9230 C.3     1  UNL1        0.0383
     22 C         141.4431  139.9434  169.7096 C.3     1  UNL1        0.0973
     23 C         141.9420  138.6581  158.7868 C.3     1  UNL1        0.1204
     24 C         141.1792  138.7677  157.4999 C.3     1  UNL1        0.1459
     25 O         141.8723  138.5167  156.1935 O.3     1  UNL1       -0.3813
     26 H         142.8026  138.2970  156.3581 H       1  UNL1        0.2105
     27 C         139.7234  139.1284  157.5194 C.3     1  UNL1        0.1034
     28 N         139.2087  140.1159  158.5243 N.3     1  UNL1       -0.2704
     29 C         138.4367  139.6379  159.7182 C.3     1  UNL1        0.0759
     30 C         137.9221  140.6254  160.7231 C.3     1  UNL1        0.0609
     31 C         138.1795  142.0911  160.5341 C.3     1  UNL1        0.1687
     32 C         138.9515  142.5691  159.3402 C.3     1  UNL1        0.0609
     33 C         139.4661  141.5815  158.3353 C.3     1  UNL1        0.0759
     34 O         137.6648  143.0786  161.5391 O.3     1  UNL1       -0.4790
     35 C         138.2772  143.1452  162.9068 C.ar    1  UNL1        0.1393
     36 C         138.7398  144.4612  163.4581 C.ar    1  UNL1        0.0378
     37 C         139.3522  144.5277  164.8258 C.ar    1  UNL1        0.0154
     38 C         139.5019  143.2783  165.6421 C.ar    1  UNL1        0.0684
     39 CL        140.1143  143.3448  167.0098 Cl      1  UNL1       -0.0814
     40 C         139.0393  141.9623  165.0908 C.ar    1  UNL1        0.0712
     41 CL        139.1890  140.7127  165.9071 Cl      1  UNL1       -0.0813
     42 C         138.4269  141.8957  163.7231 C.ar    1  UNL1        0.0491
@<TRIPOS>BOND
     1     1     2    2
     2     2     3   am
     3     3    23    1
     4    23    24    1
     5    24    25    1
     6    24    27    1
     7    27    28    1
     8    28    29    1
     9    29    30    1
    10    30    31    1
    11    31    34    1
    12    34    35    1
    13    35    36   ar
    14    36    37   ar
    15    37    38   ar
    16    38    39    1
    17    38    40   ar
    18    40    41    1
    19    40    42   ar
    20    31    32    1
    21    32    33    1
    22     2     5    1
    23     5     6    1
    24     6     7    2
    25     7     8    1
    26     8     9    2
    27     8    10    1
    28    10    11    2
    29    11    12    1
    30    12    16    1
    31    16    17    2
    32    16    18    2
    33    16    19    1
    34    19    20    1
    35    20    21    1
    36    21    22    1
    37    12    13    2
    38    13    14    1
    39    14    15    1
    40    33    28    1
    41    15     5    2
    42    42    35   ar
    43    15    10    1
    44    22    19    1
    45     3     4    1
    46    25    26    1
