@<TRIPOS>MOLECULE
*****
 27 30 0 0 0
SMALL
GASTEIGER

@<TRIPOS>ATOM
      1 C         140.2462  141.9284  169.1113 C.ar    1  UNL1        0.0779
      2 C         139.3883  141.0481  169.9710 C.ar    1  UNL1        0.1038
      3 N         138.6417  139.9001  169.3590 N.ar    1  UNL1       -0.2437
      4 C         138.7531  139.6322  167.8873 C.ar    1  UNL1        0.0818
      5 C         138.0065  138.4842  167.2753 C.ar    1  UNL1        0.0191
      6 C         138.1179  138.2164  165.8036 C.ar    1  UNL1        0.0016
      7 C         138.9759  139.0967  164.9439 C.ar    1  UNL1        0.0016
      8 C         139.7224  140.2447  165.5559 C.ar    1  UNL1        0.0020
      9 C         139.6110  140.5125  167.0276 C.ar    1  UNL1        0.0235
     10 C         140.3576  141.6606  167.6397 C.ar    1  UNL1        0.0325
     11 C         139.0872  138.8288  163.4722 C.ar    1  UNL1        0.0192
     12 C         138.0699  139.3966  162.5275 C.ar    1  UNL1        0.0031
     13 C         138.1813  139.1288  161.0557 C.ar    1  UNL1        0.0207
     14 C         139.3100  138.2931  160.5288 C.ar    1  UNL1        0.0989
     15 N         140.3274  137.7253  161.4736 N.ar    1  UNL1       -0.2423
     16 C         140.2160  137.9932  162.9453 C.ar    1  UNL1        0.0988
     17 N         140.2730  144.3523  170.0462 N.am    1  UNL1       -0.3253
     18 C         140.9928  143.0765  169.7234 C.2     1  UNL1        0.2447
     19 O         142.4591  142.9487  170.0126 O.2     1  UNL1       -0.2703
     20 H         140.7630  145.1058  170.4479 H       1  UNL1        0.1453
     21 H         139.3107  144.4362  169.8564 H       1  UNL1        0.1453
     22 S         141.2156  142.5409  166.7800 S.3     1  UNL1       -0.1143
     23 C         140.5858  143.4064  165.7290 C.3     1  UNL1        0.0520
     24 C         139.2086  143.9983  165.7834 C.3     1  UNL1        0.0111
     25 C         138.9942  144.7896  164.5272 C.3     1  UNL1        0.0009
     26 C         140.2391  144.6868  163.6966 C.3     1  UNL1        0.0009
     27 C         141.2227  143.8319  164.4394 C.3     1  UNL1        0.0111
@<TRIPOS>BOND
     1    17    18   am
     2    18    19    2
     3    18     1    1
     4     1     2   ar
     5     2     3   ar
     6     3     4   ar
     7     4     5   ar
     8     5     6   ar
     9     6     7   ar
    10     7    11    1
    11    11    12   ar
    12    12    13   ar
    13    13    14   ar
    14    14    15   ar
    15    15    16   ar
    16     7     8   ar
    17     8     9   ar
    18     9    10   ar
    19    10    22    1
    20    22    23    1
    21    23    24    1
    22    24    25    1
    23    25    26    1
    24    26    27    1
    25    10     1   ar
    26    27    23    1
    27     9     4   ar
    28    16    11   ar
    29    17    20    1
    30    17    21    1
@<TRIPOS>MOLECULE
*****
 27 30 0 0 0
SMALL
GASTEIGER

@<TRIPOS>ATOM
      1 C         138.5065  142.7662  163.0377 C.ar    1  UNL1        0.0779
      2 C         137.7144  141.5450  162.6754 C.ar    1  UNL1        0.1038
      3 N         137.6443  140.3871  163.6262 N.ar    1  UNL1       -0.2437
      4 C         138.3663  140.4503  164.9396 C.ar    1  UNL1        0.0818
      5 C         138.2962  139.2924  165.8905 C.ar    1  UNL1        0.0191
      6 C         139.0182  139.3557  167.2038 C.ar    1  UNL1        0.0016
      7 C         139.8102  140.5769  167.5662 C.ar    1  UNL1        0.0016
      8 C         139.8803  141.7348  166.6153 C.ar    1  UNL1        0.0020
      9 C         139.1583  141.6715  165.3020 C.ar    1  UNL1        0.0235
     10 C         139.2284  142.8295  164.3510 C.ar    1  UNL1        0.0325
     11 C         140.5322  140.6401  168.8795 C.ar    1  UNL1        0.0192
     12 C         141.9841  140.2713  168.9557 C.ar    1  UNL1        0.0031
     13 C         142.7061  140.3345  170.2691 C.ar    1  UNL1        0.0207
     14 C         141.9760  140.7666  171.5062 C.ar    1  UNL1        0.0989
     15 N         140.5241  141.1355  171.4299 N.ar    1  UNL1       -0.2423
     16 C         139.8022  141.0723  170.1166 C.ar    1  UNL1        0.0988
     17 N         139.3987  143.8192  160.8365 N.am    1  UNL1       -0.3253
     18 C         138.5765  143.9242  162.0868 C.2     1  UNL1        0.2447
     19 O         137.8245  145.1870  162.3860 O.2     1  UNL1       -0.2703
     20 H         139.4447  144.5792  160.2124 H       1  UNL1        0.1453
     21 H         139.8923  142.9904  160.6401 H       1  UNL1        0.1453
     22 S         140.0204  144.0507  164.7134 S.3     1  UNL1       -0.1143
     23 C         141.4630  144.1544  164.3155 C.3     1  UNL1        0.0520
     24 C         142.0809  145.2671  163.5216 C.3     1  UNL1        0.0111
     25 C         143.5407  144.9640  163.3570 C.3     1  UNL1        0.0009
     26 C         143.8250  143.6640  164.0492 C.3     1  UNL1        0.0009
     27 C         142.5410  143.1636  164.6415 C.3     1  UNL1        0.0111
@<TRIPOS>BOND
     1    17    18   am
     2    18    19    2
     3    18     1    1
     4     1     2   ar
     5     2     3   ar
     6     3     4   ar
     7     4     5   ar
     8     5     6   ar
     9     6     7   ar
    10     7    11    1
    11    11    12   ar
    12    12    13   ar
    13    13    14   ar
    14    14    15   ar
    15    15    16   ar
    16     7     8   ar
    17     8     9   ar
    18     9    10   ar
    19    10    22    1
    20    22    23    1
    21    23    24    1
    22    24    25    1
    23    25    26    1
    24    26    27    1
    25    10     1   ar
    26    27    23    1
    27     9     4   ar
    28    16    11   ar
    29    17    20    1
    30    17    21    1
@<TRIPOS>MOLECULE
*****
 27 30 0 0 0
SMALL
GASTEIGER

@<TRIPOS>ATOM
      1 C         140.5498  139.0948  161.9467 C.ar    1  UNL1        0.0779
      2 C         139.5853  137.9473  162.0014 C.ar    1  UNL1        0.1038
      3 N         138.8537  137.6424  163.2748 N.ar    1  UNL1       -0.2437
      4 C         139.0866  138.4851  164.4938 C.ar    1  UNL1        0.0818
      5 C         138.3550  138.1802  165.7672 C.ar    1  UNL1        0.0191
      6 C         138.5878  139.0229  166.9861 C.ar    1  UNL1        0.0016
      7 C         139.5523  140.1704  166.9315 C.ar    1  UNL1        0.0016
      8 C         140.2839  140.4753  165.6580 C.ar    1  UNL1        0.0020
      9 C         140.0511  139.6326  164.4391 C.ar    1  UNL1        0.0235
     10 C         140.7827  139.9375  163.1656 C.ar    1  UNL1        0.0325
     11 C         139.7852  141.0131  168.1504 C.ar    1  UNL1        0.0192
     12 C         140.4541  142.3495  168.0217 C.ar    1  UNL1        0.0031
     13 C         140.6869  143.1922  169.2407 C.ar    1  UNL1        0.0207
     14 C         140.2508  142.6984  170.5883 C.ar    1  UNL1        0.0989
     15 N         139.5819  141.3619  170.7169 N.ar    1  UNL1       -0.2423
     16 C         139.3491  140.5193  169.4980 C.ar    1  UNL1        0.0988
     17 N         140.6428  140.2693  159.6311 N.am    1  UNL1       -0.3253
     18 C         141.2814  139.3996  160.6732 C.2     1  UNL1        0.2447
     19 O         142.6516  138.8348  160.4417 O.2     1  UNL1       -0.2703
     20 H         141.1230  140.4693  158.7953 H       1  UNL1        0.1453
     21 H         139.7435  140.6399  159.7830 H       1  UNL1        0.1453
     22 S         141.7472  141.0850  163.1110 S.3     1  UNL1       -0.1143
     23 C         143.1851  140.8744  163.4825 C.3     1  UNL1        0.0520
     24 C         143.7852  139.5997  163.9972 C.3     1  UNL1        0.0111
     25 C         145.2464  139.8390  164.2373 C.3     1  UNL1        0.0009
     26 C         145.5493  141.2618  163.8711 C.3     1  UNL1        0.0009
     27 C         144.2754  141.9017  163.4046 C.3     1  UNL1        0.0111
@<TRIPOS>BOND
     1    17    18   am
     2    18    19    2
     3    18     1    1
     4     1     2   ar
     5     2     3   ar
     6     3     4   ar
     7     4     5   ar
     8     5     6   ar
     9     6     7   ar
    10     7    11    1
    11    11    12   ar
    12    12    13   ar
    13    13    14   ar
    14    14    15   ar
    15    15    16   ar
    16     7     8   ar
    17     8     9   ar
    18     9    10   ar
    19    10    22    1
    20    22    23    1
    21    23    24    1
    22    24    25    1
    23    25    26    1
    24    26    27    1
    25    10     1   ar
    26    27    23    1
    27     9     4   ar
    28    16    11   ar
    29    17    20    1
    30    17    21    1
@<TRIPOS>MOLECULE
*****
 27 30 0 0 0
SMALL
GASTEIGER

@<TRIPOS>ATOM
      1 C         142.3505  138.9149  162.3986 C.ar    1  UNL1        0.0779
      2 C         141.1948  138.0193  162.0636 C.ar    1  UNL1        0.1038
      3 N         140.0241  137.9247  162.9966 N.ar    1  UNL1       -0.2437
      4 C         140.0091  138.7258  164.2648 C.ar    1  UNL1        0.0818
      5 C         138.8385  138.6312  165.1978 C.ar    1  UNL1        0.0191
      6 C         138.8235  139.4323  166.4659 C.ar    1  UNL1        0.0016
      7 C         139.9792  140.3279  166.8009 C.ar    1  UNL1        0.0016
      8 C         141.1499  140.4224  165.8679 C.ar    1  UNL1        0.0020
      9 C         141.1648  139.6214  164.5998 C.ar    1  UNL1        0.0235
     10 C         142.3355  139.7159  163.6667 C.ar    1  UNL1        0.0325
     11 C         139.9642  141.1290  168.0691 C.ar    1  UNL1        0.0192
     12 C         140.4957  142.5316  168.0765 C.ar    1  UNL1        0.0031
     13 C         140.4807  143.3326  169.3446 C.ar    1  UNL1        0.0207
     14 C         139.9342  142.7310  170.6053 C.ar    1  UNL1        0.0989
     15 N         139.4027  141.3283  170.5979 N.ar    1  UNL1       -0.2423
     16 C         139.4177  140.5273  169.3298 C.ar    1  UNL1        0.0988
     17 N         144.6266  137.9986  161.5444 N.am    1  UNL1       -0.3253
     18 C         143.5211  139.0094  161.4655 C.2     1  UNL1        0.2447
     19 O         143.5864  140.1147  160.4536 O.2     1  UNL1       -0.2703
     20 H         145.3949  138.0606  160.9320 H       1  UNL1        0.1453
     21 H         144.5838  137.2731  162.2085 H       1  UNL1        0.1453
     22 S         143.4912  140.6115  164.0018 S.3     1  UNL1       -0.1143
     23 C         143.3732  142.0938  163.8043 C.3     1  UNL1        0.0520
     24 C         142.6033  142.7796  162.7147 C.3     1  UNL1        0.0111
     25 C         142.7586  144.2601  162.8987 C.3     1  UNL1        0.0009
     26 C         143.6245  144.4894  164.1020 C.3     1  UNL1        0.0009
     27 C         144.0043  143.1505  164.6616 C.3     1  UNL1        0.0111
@<TRIPOS>BOND
     1    17    18   am
     2    18    19    2
     3    18     1    1
     4     1     2   ar
     5     2     3   ar
     6     3     4   ar
     7     4     5   ar
     8     5     6   ar
     9     6     7   ar
    10     7    11    1
    11    11    12   ar
    12    12    13   ar
    13    13    14   ar
    14    14    15   ar
    15    15    16   ar
    16     7     8   ar
    17     8     9   ar
    18     9    10   ar
    19    10    22    1
    20    22    23    1
    21    23    24    1
    22    24    25    1
    23    25    26    1
    24    26    27    1
    25    10     1   ar
    26    27    23    1
    27     9     4   ar
    28    16    11   ar
    29    17    20    1
    30    17    21    1
@<TRIPOS>MOLECULE
*****
 27 30 0 0 0
SMALL
GASTEIGER

@<TRIPOS>ATOM
      1 C         139.7171  138.7266  162.6825 C.ar    1  UNL1        0.0779
      2 C         140.9598  137.9620  162.3344 C.ar    1  UNL1        0.1038
      3 N         142.0733  137.8460  163.3326 N.ar    1  UNL1       -0.2437
      4 C         141.9443  138.4946  164.6790 C.ar    1  UNL1        0.0818
      5 C         143.0578  138.3786  165.6772 C.ar    1  UNL1        0.0191
      6 C         142.9287  139.0273  167.0235 C.ar    1  UNL1        0.0016
      7 C         141.6861  139.7919  167.3716 C.ar    1  UNL1        0.0016
      8 C         140.5725  139.9079  166.3734 C.ar    1  UNL1        0.0020
      9 C         140.7016  139.2593  165.0271 C.ar    1  UNL1        0.0235
     10 C         139.5880  139.3753  164.0288 C.ar    1  UNL1        0.0325
     11 C         141.5570  140.4405  168.7180 C.ar    1  UNL1        0.0192
     12 C         142.5395  141.4919  169.1412 C.ar    1  UNL1        0.0031
     13 C         142.4104  142.1406  170.4876 C.ar    1  UNL1        0.0207
     14 C         141.2989  141.7377  171.4107 C.ar    1  UNL1        0.0989
     15 N         140.3164  140.6862  170.9874 N.ar    1  UNL1       -0.2423
     16 C         140.4454  140.0377  169.6411 C.ar    1  UNL1        0.0988
     17 N         138.6618  139.8923  160.6142 N.am    1  UNL1       -0.3253
     18 C         138.6035  138.8426  161.6842 C.2     1  UNL1        0.2447
     19 O         137.4318  137.9089  161.7558 O.2     1  UNL1       -0.2703
     20 H         137.9309  139.9685  159.9590 H       1  UNL1        0.1453
     21 H         139.4308  140.5052  160.5672 H       1  UNL1        0.1453
     22 S         138.3454  140.1399  164.3769 S.3     1  UNL1       -0.1143
     23 C         138.2785  141.6171  164.1250 C.3     1  UNL1        0.0520
     24 C         138.9561  142.6814  164.9364 C.3     1  UNL1        0.0111
     25 C         138.6187  144.0114  164.3305 C.3     1  UNL1        0.0009
     26 C         137.7325  143.7692  163.1447 C.3     1  UNL1        0.0009
     27 C         137.5223  142.2894  163.0177 C.3     1  UNL1        0.0111
@<TRIPOS>BOND
     1    17    18   am
     2    18    19    2
     3    18     1    1
     4     1     2   ar
     5     2     3   ar
     6     3     4   ar
     7     4     5   ar
     8     5     6   ar
     9     6     7   ar
    10     7    11    1
    11    11    12   ar
    12    12    13   ar
    13    13    14   ar
    14    14    15   ar
    15    15    16   ar
    16     7     8   ar
    17     8     9   ar
    18     9    10   ar
    19    10    22    1
    20    22    23    1
    21    23    24    1
    22    24    25    1
    23    25    26    1
    24    26    27    1
    25    10     1   ar
    26    27    23    1
    27     9     4   ar
    28    16    11   ar
    29    17    20    1
    30    17    21    1
@<TRIPOS>MOLECULE
*****
 27 30 0 0 0
SMALL
GASTEIGER

@<TRIPOS>ATOM
      1 C         140.3712  142.0093  168.9656 C.ar    1  UNL1        0.0779
      2 C         139.7608  140.9506  169.8354 C.ar    1  UNL1        0.1038
      3 N         139.0361  139.7943  169.2128 N.ar    1  UNL1       -0.2437
      4 C         138.9217  139.6966  167.7203 C.ar    1  UNL1        0.0818
      5 C         138.1970  138.5403  167.0977 C.ar    1  UNL1        0.0191
      6 C         138.0827  138.4427  165.6052 C.ar    1  UNL1        0.0016
      7 C         138.6931  139.5014  164.7354 C.ar    1  UNL1        0.0016
      8 C         139.4179  140.6577  165.3580 C.ar    1  UNL1        0.0020
      9 C         139.5322  140.7553  166.8505 C.ar    1  UNL1        0.0235
     10 C         140.2569  141.9116  167.4732 C.ar    1  UNL1        0.0325
     11 C         138.5788  139.4037  163.2429 C.ar    1  UNL1        0.0192
     12 C         139.1869  138.2394  162.5187 C.ar    1  UNL1        0.0031
     13 C         139.0726  138.1418  161.0262 C.ar    1  UNL1        0.0207
     14 C         138.3501  139.2085  160.2580 C.ar    1  UNL1        0.0989
     15 N         137.7420  140.3728  160.9823 N.ar    1  UNL1       -0.2423
     16 C         137.8563  140.4704  162.4747 C.ar    1  UNL1        0.0988
     17 N         140.3266  144.3549  170.0819 N.am    1  UNL1       -0.3253
     18 C         141.0960  143.1656  169.5883 C.2     1  UNL1        0.2447
     19 O         142.5900  143.1326  169.7173 O.2     1  UNL1       -0.2703
     20 H         140.8023  145.1138  170.4906 H       1  UNL1        0.1453
     21 H         139.3460  144.3766  169.9972 H       1  UNL1        0.1453
     22 S         140.8674  142.9703  166.6034 S.3     1  UNL1       -0.1143
     23 C         142.0860  142.6588  165.7860 C.3     1  UNL1        0.0520
     24 C         143.0563  141.5434  166.0398 C.3     1  UNL1        0.0111
     25 C         144.1183  141.6031  164.9821 C.3     1  UNL1        0.0009
     26 C         143.8043  142.7556  164.0747 C.3     1  UNL1        0.0009
     27 C         142.5483  143.4080  164.5715 C.3     1  UNL1        0.0111
@<TRIPOS>BOND
     1    17    18   am
     2    18    19    2
     3    18     1    1
     4     1     2   ar
     5     2     3   ar
     6     3     4   ar
     7     4     5   ar
     8     5     6   ar
     9     6     7   ar
    10     7    11    1
    11    11    12   ar
    12    12    13   ar
    13    13    14   ar
    14    14    15   ar
    15    15    16   ar
    16     7     8   ar
    17     8     9   ar
    18     9    10   ar
    19    10    22    1
    20    22    23    1
    21    23    24    1
    22    24    25    1
    23    25    26    1
    24    26    27    1
    25    10     1   ar
    26    27    23    1
    27     9     4   ar
    28    16    11   ar
    29    17    20    1
    30    17    21    1
@<TRIPOS>MOLECULE
*****
 27 30 0 0 0
SMALL
GASTEIGER

@<TRIPOS>ATOM
      1 C         143.8439  139.8732  162.1317 C.ar    1  UNL1        0.0779
      2 C         144.4653  141.1941  161.7868 C.ar    1  UNL1        0.1038
      3 N         144.5593  142.2727  162.8250 N.ar    1  UNL1       -0.2437
      4 C         144.0319  142.0303  164.2082 C.ar    1  UNL1        0.0818
      5 C         144.1259  143.1088  165.2464 C.ar    1  UNL1        0.0191
      6 C         143.5984  142.8664  166.6295 C.ar    1  UNL1        0.0016
      7 C         142.9770  141.5454  166.9744 C.ar    1  UNL1        0.0016
      8 C         142.8830  140.4669  165.9362 C.ar    1  UNL1        0.0020
      9 C         143.4104  140.7093  164.5531 C.ar    1  UNL1        0.0235
     10 C         143.3164  139.6308  163.5148 C.ar    1  UNL1        0.0325
     11 C         142.4495  141.3030  168.3576 C.ar    1  UNL1        0.0192
     12 C         141.8813  139.9629  168.7194 C.ar    1  UNL1        0.0031
     13 C         141.3539  139.7205  170.1026 C.ar    1  UNL1        0.0207
     14 C         141.3947  140.8183  171.1239 C.ar    1  UNL1        0.0989
     15 N         141.9630  142.1586  170.7620 N.ar    1  UNL1       -0.2423
     16 C         142.4904  142.4009  169.3789 C.ar    1  UNL1        0.0988
     17 N         144.7206  137.6512  161.1098 N.am    1  UNL1       -0.3253
     18 C         143.7499  138.7947  161.0934 C.2     1  UNL1        0.2447
     19 O         142.6852  138.8596  160.0388 O.2     1  UNL1       -0.2703
     20 H         144.6590  136.9434  160.4284 H       1  UNL1        0.1453
     21 H         145.4194  137.6086  161.8020 H       1  UNL1        0.1453
     22 S         142.6950  138.3098  163.8597 S.3     1  UNL1       -0.1143
     23 C         141.2075  138.1360  163.7754 C.3     1  UNL1        0.0520
     24 C         140.2446  138.2106  164.9232 C.3     1  UNL1        0.0111
     25 C         138.8637  137.9777  164.3857 C.3     1  UNL1        0.0009
     26 C         138.9731  137.7592  162.9057 C.3     1  UNL1        0.0009
     27 C         140.4216  137.8570  162.5285 C.3     1  UNL1        0.0111
@<TRIPOS>BOND
     1    17    18   am
     2    18    19    2
     3    18     1    1
     4     1     2   ar
     5     2     3   ar
     6     3     4   ar
     7     4     5   ar
     8     5     6   ar
     9     6     7   ar
    10     7    11    1
    11    11    12   ar
    12    12    13   ar
    13    13    14   ar
    14    14    15   ar
    15    15    16   ar
    16     7     8   ar
    17     8     9   ar
    18     9    10   ar
    19    10    22    1
    20    22    23    1
    21    23    24    1
    22    24    25    1
    23    25    26    1
    24    26    27    1
    25    10     1   ar
    26    27    23    1
    27     9     4   ar
    28    16    11   ar
    29    17    20    1
    30    17    21    1
@<TRIPOS>MOLECULE
*****
 27 30 0 0 0
SMALL
GASTEIGER

@<TRIPOS>ATOM
      1 C         138.3940  141.2453  162.1737 C.ar    1  UNL1        0.0779
      2 C         137.8410  142.5952  161.8248 C.ar    1  UNL1        0.1038
      3 N         138.0051  143.7420  162.7776 N.ar    1  UNL1       -0.2437
      4 C         138.7223  143.5389  164.0793 C.ar    1  UNL1        0.0818
      5 C         138.8865  144.6857  165.0321 C.ar    1  UNL1        0.0191
      6 C         139.6037  144.4825  166.3338 C.ar    1  UNL1        0.0016
      7 C         140.1567  143.1325  166.6826 C.ar    1  UNL1        0.0016
      8 C         139.9925  141.9857  165.7298 C.ar    1  UNL1        0.0020
      9 C         139.2753  142.1889  164.4282 C.ar    1  UNL1        0.0235
     10 C         139.1111  141.0421  163.4753 C.ar    1  UNL1        0.0325
     11 C         140.8739  142.9293  167.9843 C.ar    1  UNL1        0.0192
     12 C         142.1791  142.1907  168.0142 C.ar    1  UNL1        0.0031
     13 C         142.8963  141.9876  169.3160 C.ar    1  UNL1        0.0207
     14 C         142.3082  142.5231  170.5878 C.ar    1  UNL1        0.0989
     15 N         141.0030  143.2617  170.5578 N.ar    1  UNL1       -0.2423
     16 C         140.2859  143.4648  169.2561 C.ar    1  UNL1        0.0988
     17 N         137.0185  139.2180  161.3086 N.am    1  UNL1       -0.3253
     18 C         138.2297  140.0984  161.2208 C.2     1  UNL1        0.2447
     19 O         139.2767  139.8321  160.1803 O.2     1  UNL1       -0.2703
     20 H         136.9107  138.4653  160.6832 H       1  UNL1        0.1453
     21 H         136.3313  139.3928  161.9916 H       1  UNL1        0.1453
     22 S         139.6641  139.6921  163.8242 S.3     1  UNL1       -0.1143
     23 C         138.9779  138.8436  164.8535 C.3     1  UNL1        0.0520
     24 C         138.9965  137.3450  164.9155 C.3     1  UNL1        0.0111
     25 C         138.1828  136.9200  166.1018 C.3     1  UNL1        0.0009
     26 C         137.6614  138.1561  166.7730 C.3     1  UNL1        0.0009
     27 C         138.1528  139.3449  166.0015 C.3     1  UNL1        0.0111
@<TRIPOS>BOND
     1    17    18   am
     2    18    19    2
     3    18     1    1
     4     1     2   ar
     5     2     3   ar
     6     3     4   ar
     7     4     5   ar
     8     5     6   ar
     9     6     7   ar
    10     7    11    1
    11    11    12   ar
    12    12    13   ar
    13    13    14   ar
    14    14    15   ar
    15    15    16   ar
    16     7     8   ar
    17     8     9   ar
    18     9    10   ar
    19    10    22    1
    20    22    23    1
    21    23    24    1
    22    24    25    1
    23    25    26    1
    24    26    27    1
    25    10     1   ar
    26    27    23    1
    27     9     4   ar
    28    16    11   ar
    29    17    20    1
    30    17    21    1
@<TRIPOS>MOLECULE
*****
 27 30 0 0 0
SMALL
GASTEIGER

@<TRIPOS>ATOM
      1 C         140.2441  139.3389  161.7982 C.ar    1  UNL1        0.0779
      2 C         139.3921  138.1069  161.8771 C.ar    1  UNL1        0.1038
      3 N         138.7854  137.6972  163.1863 N.ar    1  UNL1       -0.2437
      4 C         139.0308  138.5194  164.4167 C.ar    1  UNL1        0.0818
      5 C         138.4242  138.1097  165.7259 C.ar    1  UNL1        0.0191
      6 C         138.6696  138.9320  166.9561 C.ar    1  UNL1        0.0016
      7 C         139.5216  140.1640  166.8772 C.ar    1  UNL1        0.0016
      8 C         140.1282  140.5737  165.5680 C.ar    1  UNL1        0.0020
      9 C         139.8828  139.7514  164.3377 C.ar    1  UNL1        0.0235
     10 C         140.4895  140.1612  163.0284 C.ar    1  UNL1        0.0325
     11 C         139.7670  140.9862  168.1076 C.ar    1  UNL1        0.0192
     12 C         140.4307  142.3265  167.9939 C.ar    1  UNL1        0.0031
     13 C         140.6760  143.1488  169.2242 C.ar    1  UNL1        0.0207
     14 C         140.2577  142.6307  170.5683 C.ar    1  UNL1        0.0989
     15 N         139.5940  141.2903  170.6820 N.ar    1  UNL1       -0.2423
     16 C         139.3486  140.4681  169.4517 C.ar    1  UNL1        0.0988
     17 N         140.1085  140.6804  159.5773 N.am    1  UNL1       -0.3253
     18 C         140.8507  139.7487  160.4889 C.2     1  UNL1        0.2447
     19 O         142.1996  139.2267  160.0912 O.2     1  UNL1       -0.2703
     20 H         140.5066  140.9493  158.7180 H       1  UNL1        0.1453
     21 H         139.2232  141.0229  159.8383 H       1  UNL1        0.1453
     22 S         141.3415  141.3932  162.9495 S.3     1  UNL1       -0.1143
     23 C         140.7136  142.7490  163.0822 C.3     1  UNL1        0.0520
     24 C         139.6358  143.3113  162.2034 C.3     1  UNL1        0.0111
     25 C         139.3094  144.6904  162.6949 C.3     1  UNL1        0.0009
     26 C         140.1855  144.9804  163.8775 C.3     1  UNL1        0.0009
     27 C         141.0534  143.7806  164.1168 C.3     1  UNL1        0.0111
@<TRIPOS>BOND
     1    17    18   am
     2    18    19    2
     3    18     1    1
     4     1     2   ar
     5     2     3   ar
     6     3     4   ar
     7     4     5   ar
     8     5     6   ar
     9     6     7   ar
    10     7    11    1
    11    11    12   ar
    12    12    13   ar
    13    13    14   ar
    14    14    15   ar
    15    15    16   ar
    16     7     8   ar
    17     8     9   ar
    18     9    10   ar
    19    10    22    1
    20    22    23    1
    21    23    24    1
    22    24    25    1
    23    25    26    1
    24    26    27    1
    25    10     1   ar
    26    27    23    1
    27     9     4   ar
    28    16    11   ar
    29    17    20    1
    30    17    21    1
