@<TRIPOS>MOLECULE
*****
 30 32 0 0 0
SMALL
GASTEIGER

@<TRIPOS>ATOM
      1 C         141.7703  142.8546  161.6660 C.ar    1  UNL1        0.1556
      2 C         142.2515  142.9015  163.0860 C.ar    1  UNL1        0.0488
      3 C         141.1575  142.3701  163.9639 C.ar    1  UNL1        0.1330
      4 N         140.0002  141.9948  163.0866 N.ar    1  UNL1       -0.2441
      5 N         140.3788  142.2942  161.6665 N.ar    1  UNL1       -0.1643
      6 C         144.3254  142.8049  158.6298 C.3     1  UNL1        0.1110
      7 N         143.5512  142.3682  159.8380 N.am    1  UNL1       -0.2979
      8 C         142.5445  143.2914  160.4578 C.2     1  UNL1        0.2654
      9 O         142.3119  144.6514  159.8693 O.2     1  UNL1       -0.2684
     10 H         143.7039  141.4755  160.2242 H       1  UNL1        0.1498
     11 C         141.2115  142.2373  165.4571 C.2     1  UNL1        0.2633
     12 O         140.3757  143.1351  166.3206 O.2     1  UNL1       -0.2685
     13 N         142.1012  141.2069  166.0868 N.am    1  UNL1       -0.3013
     14 H         142.6497  140.6177  165.5201 H       1  UNL1        0.1497
     15 C         142.1551  141.0741  167.5800 C.3     1  UNL1        0.0721
     16 C         141.3063  140.0499  168.2730 C.3     1  UNL1        0.0221
     17 C         141.3603  139.9172  169.7661 C.3     1  UNL1        0.0309
     18 C         142.2631  140.8087  170.5662 C.3     1  UNL1        0.1106
     19 O         142.3171  140.6759  172.0594 O.3     1  UNL1       -0.3845
     20 C         143.1120  141.8329  169.8731 C.3     1  UNL1        0.0309
     21 C         143.0580  141.9656  168.3800 C.3     1  UNL1        0.0221
     22 H         141.7121  139.9730  172.3436 H       1  UNL1        0.2103
     23 C         138.6936  141.4208  163.5485 C.3     1  UNL1        0.1276
     24 C         137.4211  142.1858  163.3352 C.3     1  UNL1        0.0312
     25 C         138.6595  140.0818  164.2237 C.ar    1  UNL1       -0.0001
     26 C         138.1909  139.9699  165.6443 C.ar    1  UNL1       -0.0024
     27 C         138.1568  138.6310  166.3195 C.ar    1  UNL1       -0.0003
     28 C         138.5911  137.4038  165.5743 C.ar    1  UNL1       -0.0000
     29 C         139.0597  137.5157  164.1537 C.ar    1  UNL1       -0.0003
     30 C         139.0938  138.8546  163.4785 C.ar    1  UNL1       -0.0024
@<TRIPOS>BOND
     1     6     7    1
     2     7     8   am
     3     8     9    2
     4     8     1    1
     5     1     2   ar
     6     2     3   ar
     7     3    11    1
     8    11    12    2
     9    11    13   am
    10    15    13    1
    11    15    16    1
    12    16    17    1
    13    17    18    1
    14    18    19    1
    15    18    20    1
    16    20    21    1
    17     3     4   ar
    18     4    23    1
    19    23    24    1
    20    23    25    1
    21    25    26   ar
    22    26    27   ar
    23    27    28   ar
    24    28    29   ar
    25    29    30   ar
    26     4     5   ar
    27     5     1   ar
    28    21    15    1
    29    30    25   ar
    30     7    10    1
    31    13    14    1
    32    19    22    1
@<TRIPOS>MOLECULE
*****
 30 32 0 0 0
SMALL
GASTEIGER

@<TRIPOS>ATOM
      1 C         142.7420  139.7717  161.9352 C.ar    1  UNL1        0.1556
      2 C         142.7362  139.6234  163.4280 C.ar    1  UNL1        0.0488
      3 C         142.3376  140.9413  164.0231 C.ar    1  UNL1        0.1330
      4 N         142.0970  141.9041  162.8983 N.ar    1  UNL1       -0.2441
      5 N         142.3469  141.1813  161.6079 N.ar    1  UNL1       -0.1643
      6 C         142.7499  137.6011  158.6128 C.3     1  UNL1        0.1110
      7 N         142.4089  138.6740  159.6041 N.am    1  UNL1       -0.2979
      8 C         143.0829  138.6988  160.9440 C.2     1  UNL1        0.2654
      9 O         144.0978  137.6507  161.2925 O.2     1  UNL1       -0.2684
     10 H         141.7428  139.3618  159.3754 H       1  UNL1        0.1498
     11 C         142.2032  141.2434  165.4862 C.2     1  UNL1        0.2633
     12 O         143.3819  141.7599  166.2568 O.2     1  UNL1       -0.2685
     13 N         140.8901  141.0289  166.1788 N.am    1  UNL1       -0.3013
     14 H         140.1164  140.6899  165.6730 H       1  UNL1        0.1497
     15 C         140.7556  141.3310  167.6419 C.3     1  UNL1        0.0721
     16 C         140.7562  140.2128  168.6417 C.3     1  UNL1        0.0221
     17 C         140.6218  140.5149  170.1048 C.3     1  UNL1        0.0309
     18 C         140.4868  141.9352  170.5681 C.3     1  UNL1        0.1106
     19 O         140.3524  142.2372  172.0313 O.3     1  UNL1       -0.3845
     20 C         140.4862  143.0533  169.5683 C.3     1  UNL1        0.0309
     21 C         140.6206  142.7512  168.1052 C.3     1  UNL1        0.0221
     22 H         140.3711  141.4088  172.5355 H       1  UNL1        0.2103
     23 C         141.6798  143.3380  163.0392 C.3     1  UNL1        0.1276
     24 C         142.6296  144.4360  162.6622 C.3     1  UNL1        0.0312
     25 C         140.3126  143.6739  163.5571 C.ar    1  UNL1       -0.0001
     26 C         139.0954  143.2580  162.7856 C.ar    1  UNL1       -0.0024
     27 C         137.7282  143.5938  163.3034 C.ar    1  UNL1       -0.0003
     28 C         137.5784  144.3456  164.5927 C.ar    1  UNL1       -0.0000
     29 C         138.7956  144.7615  165.3642 C.ar    1  UNL1       -0.0003
     30 C         140.1628  144.4256  164.8464 C.ar    1  UNL1       -0.0024
@<TRIPOS>BOND
     1     6     7    1
     2     7     8   am
     3     8     9    2
     4     8     1    1
     5     1     2   ar
     6     2     3   ar
     7     3    11    1
     8    11    12    2
     9    11    13   am
    10    15    13    1
    11    15    16    1
    12    16    17    1
    13    17    18    1
    14    18    19    1
    15    18    20    1
    16    20    21    1
    17     3     4   ar
    18     4    23    1
    19    23    24    1
    20    23    25    1
    21    25    26   ar
    22    26    27   ar
    23    27    28   ar
    24    28    29   ar
    25    29    30   ar
    26     4     5   ar
    27     5     1   ar
    28    21    15    1
    29    30    25   ar
    30     7    10    1
    31    13    14    1
    32    19    22    1
@<TRIPOS>MOLECULE
*****
 30 32 0 0 0
SMALL
GASTEIGER

@<TRIPOS>ATOM
      1 C         143.8052  141.8907  160.1120 C.ar    1  UNL1        0.1556
      2 C         143.1417  140.8395  160.9517 C.ar    1  UNL1        0.0488
      3 C         142.5061  141.5192  162.1282 C.ar    1  UNL1        0.1330
      4 N         142.7767  142.9903  162.0156 N.ar    1  UNL1       -0.2441
      5 N         143.5796  143.2199  160.7696 N.ar    1  UNL1       -0.1643
      6 C         146.1703  142.5071  156.9853 C.3     1  UNL1        0.1110
      7 N         145.4141  142.7437  158.2590 N.am    1  UNL1       -0.2979
      8 C         144.5614  141.6541  158.8384 C.2     1  UNL1        0.2654
      9 O         144.4648  140.3279  158.1441 O.2     1  UNL1       -0.2684
     10 H         145.4775  143.6141  158.7146 H       1  UNL1        0.1498
     11 C         141.7353  140.8459  163.2248 C.2     1  UNL1        0.2633
     12 O         142.2956  140.7983  164.6154 O.2     1  UNL1       -0.2685
     13 N         140.4041  140.2202  162.9308 N.am    1  UNL1       -0.3013
     14 H         140.0363  140.2515  162.0181 H       1  UNL1        0.1497
     15 C         139.6332  139.5469  164.0274 C.3     1  UNL1        0.0721
     16 C         138.8747  140.3703  165.0257 C.3     1  UNL1        0.0221
     17 C         138.1038  139.6969  166.1222 C.3     1  UNL1        0.0309
     18 C         138.0916  138.2002  166.2204 C.3     1  UNL1        0.1106
     19 O         137.3207  137.5268  167.3170 O.3     1  UNL1       -0.3845
     20 C         138.8502  137.3768  165.2222 C.3     1  UNL1        0.0309
     21 C         139.6210  138.0501  164.1257 C.3     1  UNL1        0.0221
     22 H         136.8919  138.1984  167.8702 H       1  UNL1        0.2103
     23 C         142.3240  144.0463  162.9799 C.3     1  UNL1        0.1276
     24 C         143.3044  145.0530  163.5046 C.3     1  UNL1        0.0312
     25 C         140.8906  144.0957  163.4195 C.ar    1  UNL1       -0.0001
     26 C         139.7987  144.2422  162.4016 C.ar    1  UNL1       -0.0024
     27 C         138.3654  144.2916  162.8410 C.ar    1  UNL1       -0.0003
     28 C         138.0240  144.1946  164.2984 C.ar    1  UNL1       -0.0000
     29 C         139.1160  144.0481  165.3163 C.ar    1  UNL1       -0.0003
     30 C         140.5493  143.9987  164.8769 C.ar    1  UNL1       -0.0024
@<TRIPOS>BOND
     1     6     7    1
     2     7     8   am
     3     8     9    2
     4     8     1    1
     5     1     2   ar
     6     2     3   ar
     7     3    11    1
     8    11    12    2
     9    11    13   am
    10    15    13    1
    11    15    16    1
    12    16    17    1
    13    17    18    1
    14    18    19    1
    15    18    20    1
    16    20    21    1
    17     3     4   ar
    18     4    23    1
    19    23    24    1
    20    23    25    1
    21    25    26   ar
    22    26    27   ar
    23    27    28   ar
    24    28    29   ar
    25    29    30   ar
    26     4     5   ar
    27     5     1   ar
    28    21    15    1
    29    30    25   ar
    30     7    10    1
    31    13    14    1
    32    19    22    1
@<TRIPOS>MOLECULE
*****
 30 32 0 0 0
SMALL
GASTEIGER

@<TRIPOS>ATOM
      1 C         142.7331  140.2179  161.1138 C.ar    1  UNL1        0.1556
      2 C         142.6081  139.7073  162.5188 C.ar    1  UNL1        0.0488
      3 C         142.2249  140.8601  163.3986 C.ar    1  UNL1        0.1330
      4 N         142.1130  142.0833  162.5375 N.ar    1  UNL1       -0.2441
      5 N         142.4271  141.6864  161.1255 N.ar    1  UNL1       -0.1643
      6 C         142.6778  137.3593  158.3616 C.3     1  UNL1        0.1110
      7 N         142.3112  138.1740  159.5665 N.am    1  UNL1       -0.2979
      8 C         143.0996  139.4032  159.9089 C.2     1  UNL1        0.2654
      9 O         144.2547  139.8178  159.0464 O.2     1  UNL1       -0.2684
     10 H         141.5531  137.9019  160.1327 H       1  UNL1        0.1498
     11 C         141.9941  140.8003  164.8795 C.2     1  UNL1        0.2633
     12 O         140.6012  140.6519  165.4161 O.2     1  UNL1       -0.2685
     13 N         143.1561  140.8888  165.8239 N.am    1  UNL1       -0.3013
     14 H         144.0703  140.9862  165.4717 H       1  UNL1        0.1497
     15 C         142.9253  140.8290  167.3049 C.3     1  UNL1        0.0721
     16 C         142.9661  142.0863  168.1217 C.3     1  UNL1        0.0221
     17 C         142.7353  142.0264  169.6026 C.3     1  UNL1        0.0309
     18 C         142.4637  140.7091  170.2666 C.3     1  UNL1        0.1106
     19 O         142.2329  140.6493  171.7476 O.3     1  UNL1       -0.3845
     20 C         142.4229  139.4518  169.4498 C.3     1  UNL1        0.0309
     21 C         142.6537  139.5117  167.9689 C.3     1  UNL1        0.0221
     22 H         142.2931  141.5427  172.1206 H       1  UNL1        0.2103
     23 C         141.7507  143.4613  163.0063 C.3     1  UNL1        0.1276
     24 C         142.7652  144.5645  162.9473 C.3     1  UNL1        0.0312
     25 C         140.3737  143.7361  163.5340 C.ar    1  UNL1       -0.0001
     26 C         140.2005  144.4026  164.8666 C.ar    1  UNL1       -0.0024
     27 C         138.8236  144.6775  165.3944 C.ar    1  UNL1       -0.0003
     28 C         137.6199  144.2858  164.5897 C.ar    1  UNL1       -0.0000
     29 C         137.7931  143.6193  163.2571 C.ar    1  UNL1       -0.0003
     30 C         139.1700  143.3444  162.7293 C.ar    1  UNL1       -0.0024
@<TRIPOS>BOND
     1     6     7    1
     2     7     8   am
     3     8     9    2
     4     8     1    1
     5     1     2   ar
     6     2     3   ar
     7     3    11    1
     8    11    12    2
     9    11    13   am
    10    15    13    1
    11    15    16    1
    12    16    17    1
    13    17    18    1
    14    18    19    1
    15    18    20    1
    16    20    21    1
    17     3     4   ar
    18     4    23    1
    19    23    24    1
    20    23    25    1
    21    25    26   ar
    22    26    27   ar
    23    27    28   ar
    24    28    29   ar
    25    29    30   ar
    26     4     5   ar
    27     5     1   ar
    28    21    15    1
    29    30    25   ar
    30     7    10    1
    31    13    14    1
    32    19    22    1
@<TRIPOS>MOLECULE
*****
 30 32 0 0 0
SMALL
GASTEIGER

@<TRIPOS>ATOM
      1 C         140.7597  143.9930  161.7955 C.ar    1  UNL1        0.1556
      2 C         140.7290  144.1213  163.2897 C.ar    1  UNL1        0.0488
      3 C         141.2434  142.8397  163.8755 C.ar    1  UNL1        0.1330
      4 N         141.5919  141.9195  162.7434 N.ar    1  UNL1       -0.2441
      5 N         141.2929  142.6322  161.4579 N.ar    1  UNL1       -0.1643
      6 C         140.2951  145.9680  158.3846 C.3     1  UNL1        0.1110
      7 N         140.7226  144.9196  159.3685 N.am    1  UNL1       -0.2979
      8 C         140.3321  145.0415  160.8116 C.2     1  UNL1        0.2654
      9 O         139.5140  146.2118  161.2709 O.2     1  UNL1       -0.2684
     10 H         141.2596  144.1514  159.0670 H       1  UNL1        0.1498
     11 C         141.3844  142.5324  165.3369 C.2     1  UNL1        0.2633
     12 O         142.7227  142.6547  166.0033 O.2     1  UNL1       -0.2685
     13 N         140.1872  142.1029  166.1320 N.am    1  UNL1       -0.3013
     14 H         139.3089  142.0226  165.6946 H       1  UNL1        0.1497
     15 C         140.3283  141.7956  167.5934 C.3     1  UNL1        0.0721
     16 C         140.4087  140.3710  168.0559 C.3     1  UNL1        0.0221
     17 C         140.5498  140.0637  169.5173 C.3     1  UNL1        0.0309
     18 C         140.6104  141.1811  170.5162 C.3     1  UNL1        0.1106
     19 O         140.7514  140.8739  171.9776 O.3     1  UNL1       -0.3845
     20 C         140.5299  142.6058  170.0537 C.3     1  UNL1        0.0309
     21 C         140.3889  142.9130  168.5923 C.3     1  UNL1        0.0221
     22 H         140.7888  139.9128  172.1038 H       1  UNL1        0.2103
     23 C         142.1426  140.5304  162.8739 C.3     1  UNL1        0.1276
     24 C         143.5364  140.2294  162.4087 C.3     1  UNL1        0.0312
     25 C         141.2994  139.4422  163.4698 C.ar    1  UNL1       -0.0001
     26 C         139.8051  139.5723  163.4809 C.ar    1  UNL1       -0.0024
     27 C         138.9619  138.4842  164.0767 C.ar    1  UNL1       -0.0003
     28 C         139.6130  137.2660  164.6616 C.ar    1  UNL1       -0.0000
     29 C         141.1073  137.1359  164.6505 C.ar    1  UNL1       -0.0003
     30 C         141.9505  138.2240  164.0547 C.ar    1  UNL1       -0.0024
@<TRIPOS>BOND
     1     6     7    1
     2     7     8   am
     3     8     9    2
     4     8     1    1
     5     1     2   ar
     6     2     3   ar
     7     3    11    1
     8    11    12    2
     9    11    13   am
    10    15    13    1
    11    15    16    1
    12    16    17    1
    13    17    18    1
    14    18    19    1
    15    18    20    1
    16    20    21    1
    17     3     4   ar
    18     4    23    1
    19    23    24    1
    20    23    25    1
    21    25    26   ar
    22    26    27   ar
    23    27    28   ar
    24    28    29   ar
    25    29    30   ar
    26     4     5   ar
    27     5     1   ar
    28    21    15    1
    29    30    25   ar
    30     7    10    1
    31    13    14    1
    32    19    22    1
@<TRIPOS>MOLECULE
*****
 30 32 0 0 0
SMALL
GASTEIGER

@<TRIPOS>ATOM
      1 C         140.5871  143.8562  161.8995 C.ar    1  UNL1        0.1556
      2 C         140.7332  144.0267  163.3827 C.ar    1  UNL1        0.0488
      3 C         140.9860  142.6750  163.9819 C.ar    1  UNL1        0.1330
      4 N         140.9962  141.6692  162.8692 N.ar    1  UNL1       -0.2441
      5 N         140.7496  142.3992  161.5822 N.ar    1  UNL1       -0.1643
      6 C         140.3143  145.8105  158.4562 C.3     1  UNL1        0.1110
      7 N         140.5768  144.7162  159.4479 N.am    1  UNL1       -0.2979
      8 C         140.3245  144.9506  160.9078 C.2     1  UNL1        0.2654
      9 O         139.8097  146.2794  161.3761 O.2     1  UNL1       -0.2684
     10 H         140.9147  143.8440  159.1406 H       1  UNL1        0.1498
     11 C         141.1924  142.3809  165.4383 C.2     1  UNL1        0.2633
     12 O         142.5584  142.5130  166.0438 O.2     1  UNL1       -0.2685
     13 N         140.0329  141.9548  166.2891 N.am    1  UNL1       -0.3013
     14 H         139.1363  141.8681  165.8916 H       1  UNL1        0.1497
     15 C         140.2393  141.6607  167.7454 C.3     1  UNL1        0.0721
     16 C         140.3664  142.7874  168.7274 C.3     1  UNL1        0.0221
     17 C         140.5728  142.4932  170.1837 C.3     1  UNL1        0.0309
     18 C         140.6521  141.0724  170.6580 C.3     1  UNL1        0.1106
     19 O         140.8585  140.7783  172.1144 O.3     1  UNL1       -0.3845
     20 C         140.5249  139.9457  169.6760 C.3     1  UNL1        0.0309
     21 C         140.3185  140.2398  168.2197 C.3     1  UNL1        0.0221
     22 H         140.9199  141.6116  172.6070 H       1  UNL1        0.2103
     23 C         141.2146  140.1926  163.0175 C.3     1  UNL1        0.1276
     24 C         140.3192  139.2262  162.3003 C.3     1  UNL1        0.0312
     25 C         142.3284  139.6824  163.8831 C.ar    1  UNL1       -0.0001
     26 C         142.0188  138.8365  165.0825 C.ar    1  UNL1       -0.0024
     27 C         143.1325  138.3262  165.9481 C.ar    1  UNL1       -0.0003
     28 C         144.5558  138.6619  165.6143 C.ar    1  UNL1       -0.0000
     29 C         144.8655  139.5077  164.4148 C.ar    1  UNL1       -0.0003
     30 C         143.7517  140.0180  163.5493 C.ar    1  UNL1       -0.0024
@<TRIPOS>BOND
     1     6     7    1
     2     7     8   am
     3     8     9    2
     4     8     1    1
     5     1     2   ar
     6     2     3   ar
     7     3    11    1
     8    11    12    2
     9    11    13   am
    10    15    13    1
    11    15    16    1
    12    16    17    1
    13    17    18    1
    14    18    19    1
    15    18    20    1
    16    20    21    1
    17     3     4   ar
    18     4    23    1
    19    23    24    1
    20    23    25    1
    21    25    26   ar
    22    26    27   ar
    23    27    28   ar
    24    28    29   ar
    25    29    30   ar
    26     4     5   ar
    27     5     1   ar
    28    21    15    1
    29    30    25   ar
    30     7    10    1
    31    13    14    1
    32    19    22    1
@<TRIPOS>MOLECULE
*****
 30 32 0 0 0
SMALL
GASTEIGER

@<TRIPOS>ATOM
      1 C         140.3533  143.3886  160.5620 C.ar    1  UNL1        0.1556
      2 C         140.2772  143.6720  162.0331 C.ar    1  UNL1        0.0488
      3 C         139.7293  142.4519  162.7124 C.ar    1  UNL1        0.1330
      4 N         139.4669  141.4146  161.6612 N.ar    1  UNL1       -0.2441
      5 N         139.8525  141.9934  160.3322 N.ar    1  UNL1       -0.1643
      6 C         140.3527  146.0431  157.6119 C.3     1  UNL1        0.1110
      7 N         139.8620  145.0974  158.6677 N.am    1  UNL1       -0.2979
      8 C         140.8441  144.3342  159.5062 C.2     1  UNL1        0.2654
      9 O         142.3170  144.5167  159.2888 O.2     1  UNL1       -0.2684
     10 H         138.8952  144.9777  158.8104 H       1  UNL1        0.1498
     11 C         139.4866  142.2967  164.1845 C.2     1  UNL1        0.2633
     12 O         138.1884  142.7517  164.7826 O.2     1  UNL1       -0.2685
     13 N         140.5419  141.6864  165.0584 N.am    1  UNL1       -0.3013
     14 H         141.3940  141.3878  164.6658 H       1  UNL1        0.1497
     15 C         140.2992  141.5311  166.5305 C.3     1  UNL1        0.0721
     16 C         140.6192  142.6587  167.4664 C.3     1  UNL1        0.0221
     17 C         140.3764  142.5034  168.9384 C.3     1  UNL1        0.0309
     18 C         139.8136  141.2204  169.4745 C.3     1  UNL1        0.1106
     19 O         139.5709  141.0652  170.9466 O.3     1  UNL1       -0.3845
     20 C         139.4937  140.0928  168.5386 C.3     1  UNL1        0.0309
     21 C         139.7364  140.2482  167.0666 C.3     1  UNL1        0.0221
     22 H         139.8293  141.8802  171.4047 H       1  UNL1        0.2103
     23 C         138.9156  140.0398  161.8976 C.3     1  UNL1        0.1276
     24 C         137.6294  139.6252  161.2465 C.3     1  UNL1        0.0312
     25 C         139.6504  139.0794  162.7852 C.ar    1  UNL1       -0.0001
     26 C         138.9208  138.3654  163.8842 C.ar    1  UNL1       -0.0024
     27 C         139.6555  137.4050  164.7717 C.ar    1  UNL1       -0.0003
     28 C         141.1200  137.1586  164.5604 C.ar    1  UNL1       -0.0000
     29 C         141.8496  137.8727  163.4614 C.ar    1  UNL1       -0.0003
     30 C         141.1149  138.8330  162.5738 C.ar    1  UNL1       -0.0024
@<TRIPOS>BOND
     1     6     7    1
     2     7     8   am
     3     8     9    2
     4     8     1    1
     5     1     2   ar
     6     2     3   ar
     7     3    11    1
     8    11    12    2
     9    11    13   am
    10    15    13    1
    11    15    16    1
    12    16    17    1
    13    17    18    1
    14    18    19    1
    15    18    20    1
    16    20    21    1
    17     3     4   ar
    18     4    23    1
    19    23    24    1
    20    23    25    1
    21    25    26   ar
    22    26    27   ar
    23    27    28   ar
    24    28    29   ar
    25    29    30   ar
    26     4     5   ar
    27     5     1   ar
    28    21    15    1
    29    30    25   ar
    30     7    10    1
    31    13    14    1
    32    19    22    1
@<TRIPOS>MOLECULE
*****
 30 32 0 0 0
SMALL
GASTEIGER

@<TRIPOS>ATOM
      1 C         138.3232  142.2378  159.3530 C.ar    1  UNL1        0.1556
      2 C         138.0702  141.5722  160.6734 C.ar    1  UNL1        0.0488
      3 C         138.7111  142.4060  161.7430 C.ar    1  UNL1        0.1330
      4 N         139.3602  143.5867  161.0839 N.ar    1  UNL1       -0.2441
      5 N         139.1205  143.4829  159.6068 N.ar    1  UNL1       -0.1643
      6 C         136.7244  142.1937  155.7210 C.3     1  UNL1        0.1110
      7 N         137.1873  142.6866  157.0599 N.am    1  UNL1       -0.2979
      8 C         137.8603  141.7449  158.0141 C.2     1  UNL1        0.2654
      9 O         138.0702  140.3104  157.6294 O.2     1  UNL1       -0.2684
     10 H         137.0495  143.6281  157.3124 H       1  UNL1        0.1498
     11 C         138.7042  142.1107  163.2137 C.2     1  UNL1        0.2633
     12 O         137.7627  142.8450  164.1216 O.2     1  UNL1       -0.2685
     13 N         139.6386  141.0811  163.7764 N.am    1  UNL1       -0.3013
     14 H         140.2566  140.5991  163.1804 H       1  UNL1        0.1497
     15 C         139.6317  140.7858  165.2470 C.3     1  UNL1        0.0721
     16 C         138.7595  139.6920  165.7882 C.3     1  UNL1        0.0221
     17 C         138.7525  139.3968  167.2588 C.3     1  UNL1        0.0309
     18 C         139.6178  140.1952  168.1882 C.3     1  UNL1        0.1106
     19 O         139.6108  139.8999  169.6589 O.3     1  UNL1       -0.3845
     20 C         140.4900  141.2890  167.6470 C.3     1  UNL1        0.0309
     21 C         140.4969  141.5842  166.1764 C.3     1  UNL1        0.0221
     22 H         138.9977  139.1702  169.8393 H       1  UNL1        0.2103
     23 C         140.1162  144.6795  161.7797 C.3     1  UNL1        0.1276
     24 C         139.4617  146.0071  162.0229 C.3     1  UNL1        0.0312
     25 C         141.5270  144.4448  162.2324 C.ar    1  UNL1       -0.0001
     26 C         142.0376  145.1146  163.4736 C.ar    1  UNL1       -0.0024
     27 C         143.4482  144.8800  163.9263 C.ar    1  UNL1       -0.0003
     28 C         144.3483  143.9754  163.1378 C.ar    1  UNL1       -0.0000
     29 C         143.8377  143.3056  161.8966 C.ar    1  UNL1       -0.0003
     30 C         142.4270  143.5403  161.4439 C.ar    1  UNL1       -0.0024
@<TRIPOS>BOND
     1     6     7    1
     2     7     8   am
     3     8     9    2
     4     8     1    1
     5     1     2   ar
     6     2     3   ar
     7     3    11    1
     8    11    12    2
     9    11    13   am
    10    15    13    1
    11    15    16    1
    12    16    17    1
    13    17    18    1
    14    18    19    1
    15    18    20    1
    16    20    21    1
    17     3     4   ar
    18     4    23    1
    19    23    24    1
    20    23    25    1
    21    25    26   ar
    22    26    27   ar
    23    27    28   ar
    24    28    29   ar
    25    29    30   ar
    26     4     5   ar
    27     5     1   ar
    28    21    15    1
    29    30    25   ar
    30     7    10    1
    31    13    14    1
    32    19    22    1
@<TRIPOS>MOLECULE
*****
 30 32 0 0 0
SMALL
GASTEIGER

@<TRIPOS>ATOM
      1 C         141.7784  139.2071  160.6605 C.ar    1  UNL1        0.1556
      2 C         142.0137  138.7881  162.0815 C.ar    1  UNL1        0.0488
      3 C         140.9348  139.3953  162.9285 C.ar    1  UNL1        0.1330
      4 N         140.0328  140.1896  162.0311 N.ar    1  UNL1       -0.2441
      5 N         140.5541  140.0733  160.6294 N.ar    1  UNL1       -0.1643
      6 C         142.8810  137.5947  157.2060 C.3     1  UNL1        0.1110
      7 N         142.0398  137.9750  158.3882 N.am    1  UNL1       -0.2979
      8 C         142.6196  138.8268  159.4783 C.2     1  UNL1        0.2654
      9 O         144.0406  139.2981  159.3863 O.2     1  UNL1       -0.2684
     10 H         141.1071  137.6656  158.4486 H       1  UNL1        0.1498
     11 C         140.7845  139.2362  164.4125 C.2     1  UNL1        0.2633
     12 O         140.1925  137.9783  164.9757 O.2     1  UNL1       -0.2685
     13 N         141.2262  140.3349  165.3332 N.am    1  UNL1       -0.3013
     14 H         141.6148  141.1605  164.9635 H       1  UNL1        0.1497
     15 C         141.0759  140.1757  166.8172 C.3     1  UNL1        0.0721
     16 C         142.2418  139.7223  167.6448 C.3     1  UNL1        0.0221
     17 C         142.0915  139.5632  169.1287 C.3     1  UNL1        0.0309
     18 C         140.7751  139.8574  169.7850 C.3     1  UNL1        0.1106
     19 O         140.6248  139.6982  171.2690 O.3     1  UNL1       -0.3845
     20 C         139.6092  140.3108  168.9574 C.3     1  UNL1        0.0309
     21 C         139.7595  140.4699  167.4735 C.3     1  UNL1        0.0221
     22 H         141.4662  139.4008  171.6491 H       1  UNL1        0.2103
     23 C         138.8220  140.9642  162.4601 C.3     1  UNL1        0.1276
     24 C         137.4501  140.4513  162.1365 C.3     1  UNL1        0.0312
     25 C         138.9832  142.2517  163.2127 C.ar    1  UNL1       -0.0001
     26 C         137.8378  142.8035  164.0086 C.ar    1  UNL1       -0.0024
     27 C         137.9989  144.0910  164.7613 C.ar    1  UNL1       -0.0003
     28 C         139.3053  144.8267  164.7180 C.ar    1  UNL1       -0.0000
     29 C         140.4507  144.2748  163.9221 C.ar    1  UNL1       -0.0003
     30 C         140.2897  142.9874  163.1694 C.ar    1  UNL1       -0.0024
@<TRIPOS>BOND
     1     6     7    1
     2     7     8   am
     3     8     9    2
     4     8     1    1
     5     1     2   ar
     6     2     3   ar
     7     3    11    1
     8    11    12    2
     9    11    13   am
    10    15    13    1
    11    15    16    1
    12    16    17    1
    13    17    18    1
    14    18    19    1
    15    18    20    1
    16    20    21    1
    17     3     4   ar
    18     4    23    1
    19    23    24    1
    20    23    25    1
    21    25    26   ar
    22    26    27   ar
    23    27    28   ar
    24    28    29   ar
    25    29    30   ar
    26     4     5   ar
    27     5     1   ar
    28    21    15    1
    29    30    25   ar
    30     7    10    1
    31    13    14    1
    32    19    22    1
