@<TRIPOS>MOLECULE
*****
 32 36 0 0 0
SMALL
GASTEIGER

@<TRIPOS>ATOM
      1 N         139.5690  139.2513  165.4396 N.pl3   1  UNL1       -0.3077
      2 C         139.3822  137.8888  164.8408 C.3     1  UNL1        0.0909
      3 C         138.7551  138.0588  163.4888 C.3     1  UNL1        0.0245
      4 C         138.5543  139.5263  163.2521 C.3     1  UNL1        0.0372
      5 C         138.0426  140.5384  162.2703 C.3     1  UNL1        0.0738
      6 N         138.2294  141.9008  162.8692 N.3     1  UNL1       -0.2712
      7 C         138.8565  141.7309  164.2211 C.3     1  UNL1        0.0921
      8 C         139.0573  140.2633  164.4578 C.3     1  UNL1        0.0901
      9 C         141.3517  140.1458  169.4735 C.ar    1  UNL1        0.1388
     10 C         142.2467  139.8450  168.3081 C.ar    1  UNL1        0.0382
     11 C         141.6525  139.5468  166.9634 C.ar    1  UNL1        0.0176
     12 C         140.1632  139.5494  166.7843 C.ar    1  UNL1        0.0480
     13 C         139.2681  139.8503  167.9497 C.ar    1  UNL1        0.0176
     14 C         139.8624  140.1484  169.2944 C.ar    1  UNL1        0.0382
     15 C         142.0453  141.8622  171.2963 C.3     1  UNL1        0.2525
     16 O         141.9459  140.4439  170.8182 O.3     1  UNL1       -0.4714
     17 C         137.8548  143.2044  162.2286 C.3     1  UNL1        0.0731
     18 C         138.2632  144.4986  162.8675 C.3     1  UNL1        0.0294
     19 C         139.2345  145.4051  162.1711 C.3     1  UNL1        0.0666
     20 S         140.6768  145.4173  162.5832 S.3     1  UNL1       -0.0756
     21 C         141.3550  144.1387  162.9770 C.ar    1  UNL1        0.1933
     22 N         141.8837  143.8047  164.3404 N.ar    1  UNL1       -0.1221
     23 N         142.4791  142.4291  164.2826 N.ar    1  UNL1       -0.1266
     24 C         142.3184  141.9129  162.8834 C.ar    1  UNL1        0.1862
     25 N         141.6237  142.9695  162.0765 N.ar    1  UNL1       -0.2872
     26 C         141.2613  142.8736  160.6241 C.3     1  UNL1        0.1340
     27 C         142.7727  140.5751  162.3796 C.ar    1  UNL1        0.1362
     28 C         142.2949  139.3203  163.0480 C.ar    1  UNL1        0.1211
     29 N         142.7492  137.9824  162.5441 N.ar    1  UNL1       -0.2390
     30 C         143.6813  137.8995  161.3718 C.ar    1  UNL1        0.1195
     31 C         144.1592  139.1545  160.7034 C.ar    1  UNL1        0.1196
     32 N         143.7049  140.4923  161.2072 N.ar    1  UNL1       -0.2375
@<TRIPOS>BOND
     1    15    16    1
     2    16     9    1
     3     9    10   ar
     4    10    11   ar
     5    11    12   ar
     6    12     1    1
     7     1     2    1
     8     2     3    1
     9     3     4    1
    10     4     5    1
    11     5     6    1
    12     6    17    1
    13    17    18    1
    14    18    19    1
    15    19    20    1
    16    20    21    1
    17    21    22   ar
    18    22    23   ar
    19    23    24   ar
    20    24    27    1
    21    27    28   ar
    22    28    29   ar
    23    29    30   ar
    24    30    31   ar
    25    31    32   ar
    26    24    25   ar
    27    25    26    1
    28     6     7    1
    29     7     8    1
    30    12    13   ar
    31    13    14   ar
    32    14     9   ar
    33     8     1    1
    34     8     4    1
    35    25    21   ar
    36    32    27   ar
@<TRIPOS>MOLECULE
*****
 32 36 0 0 0
SMALL
GASTEIGER

@<TRIPOS>ATOM
      1 N         140.0201  139.1935  166.0997 N.pl3   1  UNL1       -0.3077
      2 C         138.7181  138.4625  165.9577 C.3     1  UNL1        0.0909
      3 C         138.7833  137.6384  164.7061 C.3     1  UNL1        0.0245
      4 C         140.1257  137.8603  164.0745 C.3     1  UNL1        0.0372
      5 C         140.9957  137.4881  162.9106 C.3     1  UNL1        0.0738
      6 N         142.2976  138.2192  163.0526 N.3     1  UNL1       -0.2712
      7 C         142.2324  139.0432  164.3043 C.3     1  UNL1        0.0921
      8 C         140.8901  138.8214  164.9358 C.3     1  UNL1        0.0901
      9 C         141.1228  142.0091  169.4325 C.ar    1  UNL1        0.1388
     10 C         139.9022  141.1456  169.5532 C.ar    1  UNL1        0.0382
     11 C         139.5347  140.2071  168.4422 C.ar    1  UNL1        0.0176
     12 C         140.3877  140.1321  167.2106 C.ar    1  UNL1        0.0480
     13 C         141.6082  140.9956  167.0900 C.ar    1  UNL1        0.0176
     14 C         141.9757  141.9341  168.2009 C.ar    1  UNL1        0.0382
     15 C         142.9212  143.3524  170.7406 C.3     1  UNL1        0.2525
     16 O         141.4904  142.9476  170.5434 O.3     1  UNL1       -0.4714
     17 C         143.4607  138.1402  162.1087 C.3     1  UNL1        0.0731
     18 C         143.2676  137.5954  160.7246 C.3     1  UNL1        0.0294
     19 C         143.1194  138.5332  159.5634 C.3     1  UNL1        0.0666
     20 S         141.7731  138.7428  158.9357 S.3     1  UNL1       -0.0756
     21 C         140.6176  139.2016  159.7750 C.ar    1  UNL1        0.1933
     22 N         139.3044  138.4935  159.9299 N.ar    1  UNL1       -0.1221
     23 N         138.4476  139.3033  160.8573 N.ar    1  UNL1       -0.1266
     24 C         139.2314  140.5120  161.2756 C.ar    1  UNL1        0.1862
     25 N         140.5725  140.4491  160.6067 N.ar    1  UNL1       -0.2872
     26 C         141.6749  141.4568  160.7452 C.3     1  UNL1        0.1340
     27 C         138.7572  141.5935  162.2005 C.ar    1  UNL1        0.1362
     28 C         138.2656  142.8958  161.6418 C.ar    1  UNL1        0.1211
     29 N         137.7914  143.9774  162.5668 N.ar    1  UNL1       -0.2390
     30 C         137.8090  143.7567  164.0503 C.ar    1  UNL1        0.1195
     31 C         138.3007  142.4543  164.6090 C.ar    1  UNL1        0.1196
     32 N         138.7748  141.3727  163.6842 N.ar    1  UNL1       -0.2375
@<TRIPOS>BOND
     1    15    16    1
     2    16     9    1
     3     9    10   ar
     4    10    11   ar
     5    11    12   ar
     6    12     1    1
     7     1     2    1
     8     2     3    1
     9     3     4    1
    10     4     5    1
    11     5     6    1
    12     6    17    1
    13    17    18    1
    14    18    19    1
    15    19    20    1
    16    20    21    1
    17    21    22   ar
    18    22    23   ar
    19    23    24   ar
    20    24    27    1
    21    27    28   ar
    22    28    29   ar
    23    29    30   ar
    24    30    31   ar
    25    31    32   ar
    26    24    25   ar
    27    25    26    1
    28     6     7    1
    29     7     8    1
    30    12    13   ar
    31    13    14   ar
    32    14     9   ar
    33     8     1    1
    34     8     4    1
    35    25    21   ar
    36    32    27   ar
@<TRIPOS>MOLECULE
*****
 32 36 0 0 0
SMALL
GASTEIGER

@<TRIPOS>ATOM
      1 N         143.5514  140.6610  164.5087 N.pl3   1  UNL1       -0.3077
      2 C         144.3838  139.6062  163.8421 C.3     1  UNL1        0.0909
      3 C         144.4356  139.9151  162.3751 C.3     1  UNL1        0.0245
      4 C         143.6353  141.1608  162.1352 C.3     1  UNL1        0.0372
      5 C         143.1726  142.1217  161.0803 C.3     1  UNL1        0.0738
      6 N         142.3403  143.1764  161.7470 N.3     1  UNL1       -0.2712
      7 C         142.2884  142.8676  163.2139 C.3     1  UNL1        0.0921
      8 C         143.0888  141.6218  163.4538 C.3     1  UNL1        0.0901
      9 C         142.6077  140.9011  168.9021 C.ar    1  UNL1        0.1388
     10 C         142.9344  142.1486  168.1360 C.ar    1  UNL1        0.0382
     11 C         143.2490  142.0685  166.6715 C.ar    1  UNL1        0.0176
     12 C         143.2368  140.7410  165.9732 C.ar    1  UNL1        0.0480
     13 C         142.9101  139.4935  166.7393 C.ar    1  UNL1        0.0176
     14 C         142.5955  139.5736  168.2038 C.ar    1  UNL1        0.0382
     15 C         141.0497  141.6809  170.8294 C.3     1  UNL1        0.2525
     16 O         142.2931  140.9811  170.3666 O.3     1  UNL1       -0.4714
     17 C         141.6763  144.3365  161.0662 C.3     1  UNL1        0.0731
     18 C         141.1271  145.4699  161.8808 C.3     1  UNL1        0.0294
     19 C         139.6623  145.7887  161.8308 C.3     1  UNL1        0.0666
     20 S         138.7245  145.1640  162.8210 S.3     1  UNL1       -0.0756
     21 C         138.4177  143.6979  162.7417 C.ar    1  UNL1        0.1933
     22 N         137.7139  143.0041  161.6133 N.ar    1  UNL1       -0.1221
     23 N         137.6221  141.5455  161.9510 N.ar    1  UNL1       -0.1266
     24 C         138.2692  141.3378  163.2882 C.ar    1  UNL1        0.1862
     25 N         138.7609  142.6680  163.7768 N.ar    1  UNL1       -0.2872
     26 C         139.4712  142.9234  165.0731 C.3     1  UNL1        0.1340
     27 C         138.4014  140.0295  164.0100 C.ar    1  UNL1        0.1362
     28 C         138.0387  139.9342  165.4622 C.ar    1  UNL1        0.1211
     29 N         138.1709  138.6259  166.1840 N.ar    1  UNL1       -0.2390
     30 C         138.6658  137.4129  165.4535 C.ar    1  UNL1        0.1195
     31 C         139.0285  137.5082  164.0011 C.ar    1  UNL1        0.1196
     32 N         138.8963  138.8165  163.2793 N.ar    1  UNL1       -0.2375
@<TRIPOS>BOND
     1    15    16    1
     2    16     9    1
     3     9    10   ar
     4    10    11   ar
     5    11    12   ar
     6    12     1    1
     7     1     2    1
     8     2     3    1
     9     3     4    1
    10     4     5    1
    11     5     6    1
    12     6    17    1
    13    17    18    1
    14    18    19    1
    15    19    20    1
    16    20    21    1
    17    21    22   ar
    18    22    23   ar
    19    23    24   ar
    20    24    27    1
    21    27    28   ar
    22    28    29   ar
    23    29    30   ar
    24    30    31   ar
    25    31    32   ar
    26    24    25   ar
    27    25    26    1
    28     6     7    1
    29     7     8    1
    30    12    13   ar
    31    13    14   ar
    32    14     9   ar
    33     8     1    1
    34     8     4    1
    35    25    21   ar
    36    32    27   ar
@<TRIPOS>MOLECULE
*****
 32 36 0 0 0
SMALL
GASTEIGER

@<TRIPOS>ATOM
      1 N         142.8499  143.6970  163.6148 N.pl3   1  UNL1       -0.3077
      2 C         144.3436  143.5802  163.6865 C.3     1  UNL1        0.0909
      3 C         144.6962  142.9427  164.9977 C.3     1  UNL1        0.0245
      4 C         143.4204  142.6655  165.7363 C.3     1  UNL1        0.0372
      5 C         142.8498  142.1002  167.0032 C.3     1  UNL1        0.0738
      6 N         141.3562  142.2171  166.9314 N.3     1  UNL1       -0.2712
      7 C         141.0035  142.8546  165.6203 C.3     1  UNL1        0.0921
      8 C         142.2793  143.1317  164.8816 C.3     1  UNL1        0.0901
      9 C         140.4938  145.4379  160.1988 C.ar    1  UNL1        0.1388
     10 C         140.1823  145.8443  161.6087 C.ar    1  UNL1        0.0382
     11 C         140.9677  145.2640  162.7474 C.ar    1  UNL1        0.0176
     12 C         142.0645  144.2773  162.4761 C.ar    1  UNL1        0.0480
     13 C         142.3760  143.8709  161.0662 C.ar    1  UNL1        0.0176
     14 C         141.5906  144.4513  159.9276 C.ar    1  UNL1        0.0382
     15 C         140.2093  145.8744  157.6536 C.3     1  UNL1        0.2525
     16 O         139.7085  146.0182  159.0602 O.3     1  UNL1       -0.4714
     17 C         140.3855  141.7741  167.9857 C.3     1  UNL1        0.0731
     18 C         139.6839  140.4550  167.8527 C.3     1  UNL1        0.0294
     19 C         139.9586  139.5754  166.6692 C.3     1  UNL1        0.0666
     20 S         138.8421  139.1943  165.7428 S.3     1  UNL1       -0.0756
     21 C         138.4594  140.1057  164.6146 C.ar    1  UNL1        0.1933
     22 N         137.8432  141.4665  164.7507 N.ar    1  UNL1       -0.1221
     23 N         137.6287  142.0182  163.3724 N.ar    1  UNL1       -0.1266
     24 C         138.1122  140.9983  162.3845 C.ar    1  UNL1        0.1862
     25 N         138.6256  139.8163  163.1522 N.ar    1  UNL1       -0.2872
     26 C         139.2037  138.5647  162.5612 C.3     1  UNL1        0.1340
     27 C         138.0868  141.1362  160.8910 C.ar    1  UNL1        0.1362
     28 C         137.5841  140.0065  160.0420 C.ar    1  UNL1        0.1211
     29 N         137.5587  140.1444  158.5485 N.ar    1  UNL1       -0.2390
     30 C         138.0361  141.4120  157.9042 C.ar    1  UNL1        0.1195
     31 C         138.5389  142.5418  158.7533 C.ar    1  UNL1        0.1196
     32 N         138.5643  142.4039  160.2467 N.ar    1  UNL1       -0.2375
@<TRIPOS>BOND
     1    15    16    1
     2    16     9    1
     3     9    10   ar
     4    10    11   ar
     5    11    12   ar
     6    12     1    1
     7     1     2    1
     8     2     3    1
     9     3     4    1
    10     4     5    1
    11     5     6    1
    12     6    17    1
    13    17    18    1
    14    18    19    1
    15    19    20    1
    16    20    21    1
    17    21    22   ar
    18    22    23   ar
    19    23    24   ar
    20    24    27    1
    21    27    28   ar
    22    28    29   ar
    23    29    30   ar
    24    30    31   ar
    25    31    32   ar
    26    24    25   ar
    27    25    26    1
    28     6     7    1
    29     7     8    1
    30    12    13   ar
    31    13    14   ar
    32    14     9   ar
    33     8     1    1
    34     8     4    1
    35    25    21   ar
    36    32    27   ar
@<TRIPOS>MOLECULE
*****
 32 36 0 0 0
SMALL
GASTEIGER

@<TRIPOS>ATOM
      1 N         143.2798  143.1468  161.6420 N.pl3   1  UNL1       -0.3077
      2 C         144.3540  143.8945  162.3748 C.3     1  UNL1        0.0909
      3 C         143.6989  144.7157  163.4456 C.3     1  UNL1        0.0245
      4 C         142.2200  144.4755  163.3745 C.3     1  UNL1        0.0372
      5 C         140.9011  144.8346  163.9923 C.3     1  UNL1        0.0738
      6 N         139.8271  144.0868  163.2594 N.3     1  UNL1       -0.2712
      7 C         140.4820  143.2656  162.1887 C.3     1  UNL1        0.0921
      8 C         141.9610  143.5058  162.2598 C.3     1  UNL1        0.0901
      9 C         143.9043  140.3222  158.1949 C.ar    1  UNL1        0.1388
     10 C         144.4205  141.7283  158.1153 C.ar    1  UNL1        0.0382
     11 C         144.2123  142.6698  159.2644 C.ar    1  UNL1        0.0176
     12 C         143.4880  142.2052  160.4930 C.ar    1  UNL1        0.0480
     13 C         142.9718  140.7991  160.5726 C.ar    1  UNL1        0.0176
     14 C         143.1800  139.8576  159.4235 C.ar    1  UNL1        0.0382
     15 C         143.0703  138.3519  156.7211 C.3     1  UNL1        0.2525
     16 O         144.1125  139.3807  157.0459 O.3     1  UNL1       -0.4714
     17 C         138.3562  144.1493  163.5469 C.3     1  UNL1        0.0731
     18 C         137.6938  143.0421  164.3119 C.3     1  UNL1        0.0294
     19 C         137.3870  141.7403  163.6327 C.3     1  UNL1        0.0666
     20 S         138.2418  140.5365  163.8975 S.3     1  UNL1       -0.0756
     21 C         138.5461  140.1284  165.3085 C.ar    1  UNL1        0.1933
     22 N         137.7466  139.1705  166.1411 N.ar    1  UNL1       -0.1221
     23 N         138.4096  139.0566  167.4818 N.ar    1  UNL1       -0.1266
     24 C         139.6189  139.9441  167.4778 C.ar    1  UNL1        0.1862
     25 N         139.7032  140.6065  166.1346 N.ar    1  UNL1       -0.2872
     26 C         140.7593  141.5767  165.6947 C.3     1  UNL1        0.1340
     27 C         140.5758  140.1356  168.6169 C.ar    1  UNL1        0.1362
     28 C         141.9851  139.6344  168.5049 C.ar    1  UNL1        0.1211
     29 N         142.9420  139.8259  169.6441 N.ar    1  UNL1       -0.2390
     30 C         142.4896  140.5187  170.8952 C.ar    1  UNL1        0.1195
     31 C         141.0803  141.0200  171.0072 C.ar    1  UNL1        0.1196
     32 N         140.1233  140.8284  169.8681 N.ar    1  UNL1       -0.2375
@<TRIPOS>BOND
     1    15    16    1
     2    16     9    1
     3     9    10   ar
     4    10    11   ar
     5    11    12   ar
     6    12     1    1
     7     1     2    1
     8     2     3    1
     9     3     4    1
    10     4     5    1
    11     5     6    1
    12     6    17    1
    13    17    18    1
    14    18    19    1
    15    19    20    1
    16    20    21    1
    17    21    22   ar
    18    22    23   ar
    19    23    24   ar
    20    24    27    1
    21    27    28   ar
    22    28    29   ar
    23    29    30   ar
    24    30    31   ar
    25    31    32   ar
    26    24    25   ar
    27    25    26    1
    28     6     7    1
    29     7     8    1
    30    12    13   ar
    31    13    14   ar
    32    14     9   ar
    33     8     1    1
    34     8     4    1
    35    25    21   ar
    36    32    27   ar
@<TRIPOS>MOLECULE
*****
 32 36 0 0 0
SMALL
GASTEIGER

@<TRIPOS>ATOM
      1 N         140.3133  138.9037  165.6986 N.pl3   1  UNL1       -0.3077
      2 C         138.9695  138.2776  165.4702 C.3     1  UNL1        0.0909
      3 C         138.9826  137.6332  164.1158 C.3     1  UNL1        0.0245
      4 C         140.3345  137.8611  163.5070 C.3     1  UNL1        0.0372
      5 C         141.1780  137.6037  162.2937 C.3     1  UNL1        0.0738
      6 N         142.5218  138.2298  162.5221 N.3     1  UNL1       -0.2712
      7 C         142.5087  138.8742  163.8765 C.3     1  UNL1        0.0921
      8 C         141.1569  138.6463  164.4853 C.3     1  UNL1        0.0901
      9 C         141.5901  141.1586  169.3777 C.ar    1  UNL1        0.1388
     10 C         142.6010  140.3865  168.5827 C.ar    1  UNL1        0.0382
     11 C         142.1753  139.6349  167.3564 C.ar    1  UNL1        0.0176
     12 C         140.7389  139.6554  166.9250 C.ar    1  UNL1        0.0480
     13 C         139.7279  140.4274  167.7199 C.ar    1  UNL1        0.0176
     14 C         140.1536  141.1790  168.9463 C.ar    1  UNL1        0.0382
     15 C         142.9516  143.0760  170.4821 C.3     1  UNL1        0.2525
     16 O         142.0156  141.9102  170.6041 O.3     1  UNL1       -0.4714
     17 C         143.6760  138.2143  161.5642 C.3     1  UNL1        0.0731
     18 C         143.4959  138.7225  160.1645 C.3     1  UNL1        0.0294
     19 C         144.0737  140.0488  159.7680 C.3     1  UNL1        0.0666
     20 S         143.1773  141.1301  159.2412 S.3     1  UNL1       -0.0756
     21 C         142.6659  142.1963  160.1640 C.ar    1  UNL1        0.1933
     22 N         143.2826  143.5467  160.3787 N.ar    1  UNL1       -0.1221
     23 N         142.4459  144.2843  161.3816 N.ar    1  UNL1       -0.1266
     24 C         141.3120  143.3897  161.7868 C.ar    1  UNL1        0.1862
     25 N         141.4481  142.0993  161.0343 N.ar    1  UNL1       -0.2872
     26 C         140.5277  140.9190  161.1345 C.3     1  UNL1        0.1340
     27 C         140.2319  143.7265  162.7716 C.ar    1  UNL1        0.1362
     28 C         138.8383  144.0033  162.2908 C.ar    1  UNL1        0.1211
     29 N         137.7581  144.3401  163.2756 N.ar    1  UNL1       -0.2390
     30 C         138.0716  144.3999  164.7413 C.ar    1  UNL1        0.1195
     31 C         139.4652  144.1231  165.2221 C.ar    1  UNL1        0.1196
     32 N         140.5454  143.7863  164.2374 N.ar    1  UNL1       -0.2375
@<TRIPOS>BOND
     1    15    16    1
     2    16     9    1
     3     9    10   ar
     4    10    11   ar
     5    11    12   ar
     6    12     1    1
     7     1     2    1
     8     2     3    1
     9     3     4    1
    10     4     5    1
    11     5     6    1
    12     6    17    1
    13    17    18    1
    14    18    19    1
    15    19    20    1
    16    20    21    1
    17    21    22   ar
    18    22    23   ar
    19    23    24   ar
    20    24    27    1
    21    27    28   ar
    22    28    29   ar
    23    29    30   ar
    24    30    31   ar
    25    31    32   ar
    26    24    25   ar
    27    25    26    1
    28     6     7    1
    29     7     8    1
    30    12    13   ar
    31    13    14   ar
    32    14     9   ar
    33     8     1    1
    34     8     4    1
    35    25    21   ar
    36    32    27   ar
@<TRIPOS>MOLECULE
*****
 32 36 0 0 0
SMALL
GASTEIGER

@<TRIPOS>ATOM
      1 N         142.6712  143.8539  163.8121 N.pl3   1  UNL1       -0.3077
      2 C         144.1351  144.0197  164.0940 C.3     1  UNL1        0.0909
      3 C         144.4328  143.3551  165.4054 C.3     1  UNL1        0.0245
      4 C         143.1528  142.7786  165.9340 C.3     1  UNL1        0.0372
      5 C         142.5457  142.0115  167.0711 C.3     1  UNL1        0.0738
      6 N         141.0819  141.8458  166.7892 N.3     1  UNL1       -0.2712
      7 C         140.7842  142.5104  165.4779 C.3     1  UNL1        0.0921
      8 C         142.0641  143.0869  164.9493 C.3     1  UNL1        0.0901
      9 C         140.4844  145.3884  160.1908 C.ar    1  UNL1        0.1388
     10 C         140.1020  145.8714  161.5584 C.ar    1  UNL1        0.0382
     11 C         140.8309  145.3599  162.7655 C.ar    1  UNL1        0.0176
     12 C         141.9423  144.3654  162.6050 C.ar    1  UNL1        0.0480
     13 C         142.3248  143.8823  161.2374 C.ar    1  UNL1        0.0176
     14 C         141.5958  144.3939  160.0303 C.ar    1  UNL1        0.0382
     15 C         140.4473  145.9456  157.6535 C.3     1  UNL1        0.2525
     16 O         139.7555  145.8999  158.9837 O.3     1  UNL1       -0.4714
     17 C         140.0898  141.1395  167.6649 C.3     1  UNL1        0.0731
     18 C         139.6976  139.7235  167.3632 C.3     1  UNL1        0.0294
     19 C         138.5773  139.4432  166.4060 C.3     1  UNL1        0.0666
     20 S         138.5403  138.1459  165.6539 S.3     1  UNL1       -0.0756
     21 C         139.4031  137.9570  164.4414 C.ar    1  UNL1        0.1933
     22 N         140.5882  137.0436  164.3363 N.ar    1  UNL1       -0.1221
     23 N         141.1498  137.1704  162.9512 N.ar    1  UNL1       -0.1266
     24 C         140.3117  138.1623  162.2003 C.ar    1  UNL1        0.1862
     25 N         139.2322  138.6484  163.1213 N.ar    1  UNL1       -0.2872
     26 C         138.1685  139.6501  162.7818 C.3     1  UNL1        0.1340
     27 C         140.5171  138.5925  160.7780 C.ar    1  UNL1        0.1362
     28 C         141.7723  139.3143  160.3867 C.ar    1  UNL1        0.1211
     29 N         141.9776  139.7446  158.9643 N.ar    1  UNL1       -0.2390
     30 C         140.9277  139.4529  157.9335 C.ar    1  UNL1        0.1195
     31 C         139.6724  138.7310  158.3249 C.ar    1  UNL1        0.1196
     32 N         139.4671  138.3008  159.7472 N.ar    1  UNL1       -0.2375
@<TRIPOS>BOND
     1    15    16    1
     2    16     9    1
     3     9    10   ar
     4    10    11   ar
     5    11    12   ar
     6    12     1    1
     7     1     2    1
     8     2     3    1
     9     3     4    1
    10     4     5    1
    11     5     6    1
    12     6    17    1
    13    17    18    1
    14    18    19    1
    15    19    20    1
    16    20    21    1
    17    21    22   ar
    18    22    23   ar
    19    23    24   ar
    20    24    27    1
    21    27    28   ar
    22    28    29   ar
    23    29    30   ar
    24    30    31   ar
    25    31    32   ar
    26    24    25   ar
    27    25    26    1
    28     6     7    1
    29     7     8    1
    30    12    13   ar
    31    13    14   ar
    32    14     9   ar
    33     8     1    1
    34     8     4    1
    35    25    21   ar
    36    32    27   ar
@<TRIPOS>MOLECULE
*****
 32 36 0 0 0
SMALL
GASTEIGER

@<TRIPOS>ATOM
      1 N         138.7386  141.5055  163.9567 N.pl3   1  UNL1       -0.3077
      2 C         138.1344  142.8250  163.5774 C.3     1  UNL1        0.0909
      3 C         137.9953  142.8590  162.0843 C.3     1  UNL1        0.0245
      4 C         138.5134  141.5606  161.5407 C.3     1  UNL1        0.0372
      5 C         138.7477  140.7791  160.2820 C.3     1  UNL1        0.0738
      6 N         139.3518  139.4596  160.6613 N.3     1  UNL1       -0.2712
      7 C         139.4910  139.4255  162.1543 C.3     1  UNL1        0.0921
      8 C         138.9728  140.7240  162.6979 C.3     1  UNL1        0.0901
      9 C         139.6827  140.1323  168.1368 C.ar    1  UNL1        0.1388
     10 C         140.3242  141.3742  167.5925 C.ar    1  UNL1        0.0382
     11 C         140.0094  141.8319  166.1991 C.ar    1  UNL1        0.0176
     12 C         139.0533  141.0477  165.3500 C.ar    1  UNL1        0.0480
     13 C         138.4118  139.8059  165.8944 C.ar    1  UNL1        0.0176
     14 C         138.7265  139.3482  167.2878 C.ar    1  UNL1        0.0382
     15 C         141.4220  139.6129  169.9954 C.3     1  UNL1        0.2525
     16 O         139.9974  139.6746  169.5302 O.3     1  UNL1       -0.4714
     17 C         139.7473  138.3661  159.7137 C.3     1  UNL1        0.0731
     18 C         140.3264  138.7084  158.3731 C.3     1  UNL1        0.0294
     19 C         141.6564  138.1474  157.9652 C.3     1  UNL1        0.0666
     20 S         142.8975  138.9767  158.1132 S.3     1  UNL1       -0.0756
     21 C         143.2090  139.6329  159.4256 C.ar    1  UNL1        0.1933
     22 N         143.9753  139.0179  160.5590 N.ar    1  UNL1       -0.1221
     23 N         144.0487  140.0242  161.6689 N.ar    1  UNL1       -0.1266
     24 C         143.3277  141.2611  161.2216 C.ar    1  UNL1        0.1862
     25 N         142.8087  141.0193  159.8352 N.ar    1  UNL1       -0.2872
     26 C         142.0267  141.9929  159.0042 C.3     1  UNL1        0.1340
     27 C         143.1558  142.5190  162.0204 C.ar    1  UNL1        0.1362
     28 C         144.2174  143.5782  161.9893 C.ar    1  UNL1        0.1211
     29 N         144.0454  144.8361  162.7882 N.ar    1  UNL1       -0.2390
     30 C         142.8119  145.0348  163.6181 C.ar    1  UNL1        0.1195
     31 C         141.7502  143.9756  163.6492 C.ar    1  UNL1        0.1196
     32 N         141.9221  142.7177  162.8504 N.ar    1  UNL1       -0.2375
@<TRIPOS>BOND
     1    15    16    1
     2    16     9    1
     3     9    10   ar
     4    10    11   ar
     5    11    12   ar
     6    12     1    1
     7     1     2    1
     8     2     3    1
     9     3     4    1
    10     4     5    1
    11     5     6    1
    12     6    17    1
    13    17    18    1
    14    18    19    1
    15    19    20    1
    16    20    21    1
    17    21    22   ar
    18    22    23   ar
    19    23    24   ar
    20    24    27    1
    21    27    28   ar
    22    28    29   ar
    23    29    30   ar
    24    30    31   ar
    25    31    32   ar
    26    24    25   ar
    27    25    26    1
    28     6     7    1
    29     7     8    1
    30    12    13   ar
    31    13    14   ar
    32    14     9   ar
    33     8     1    1
    34     8     4    1
    35    25    21   ar
    36    32    27   ar
@<TRIPOS>MOLECULE
*****
 32 36 0 0 0
SMALL
GASTEIGER

@<TRIPOS>ATOM
      1 N         140.0160  143.2848  164.2507 N.pl3   1  UNL1       -0.3077
      2 C         138.6460  143.8925  164.3119 C.3     1  UNL1        0.0909
      3 C         138.1526  144.0658  162.9060 C.3     1  UNL1        0.0245
      4 C         139.2177  143.5651  161.9759 C.3     1  UNL1        0.0372
      5 C         139.5710  143.3627  160.5322 C.3     1  UNL1        0.0738
      6 N         140.9409  142.7549  160.4711 N.3     1  UNL1       -0.2712
      7 C         141.4343  142.5816  161.8769 C.3     1  UNL1        0.0921
      8 C         140.3693  143.0824  162.8070 C.3     1  UNL1        0.0901
      9 C         142.6106  142.2501  167.7789 C.ar    1  UNL1        0.1388
     10 C         141.1358  142.4505  167.9656 C.ar    1  UNL1        0.0382
     11 C         140.2710  142.7954  166.7895 C.ar    1  UNL1        0.0176
     12 C         140.8809  142.9399  165.4267 C.ar    1  UNL1        0.0480
     13 C         142.3556  142.7395  165.2400 C.ar    1  UNL1        0.0176
     14 C         143.2205  142.3946  166.4161 C.ar    1  UNL1        0.0382
     15 C         143.0352  140.8499  169.9257 C.3     1  UNL1        0.2525
     16 O         143.4754  141.9053  168.9549 O.3     1  UNL1       -0.4714
     17 C         141.6866  142.3853  159.2232 C.3     1  UNL1        0.0731
     18 C         142.6260  141.2159  159.2294 C.3     1  UNL1        0.0294
     19 C         142.4346  140.0949  158.2513 C.3     1  UNL1        0.0666
     20 S         141.6864  138.8612  158.6615 S.3     1  UNL1       -0.0756
     21 C         140.5573  138.9607  159.6439 C.ar    1  UNL1        0.1933
     22 N         139.1186  139.2225  159.3100 N.ar    1  UNL1       -0.1221
     23 N         138.3407  139.2395  160.5925 N.ar    1  UNL1       -0.1266
     24 C         139.2987  138.9883  161.7190 C.ar    1  UNL1        0.1862
     25 N         140.6686  138.8160  161.1328 N.ar    1  UNL1       -0.2872
     26 C         141.9287  138.5463  161.9006 C.3     1  UNL1        0.1340
     27 C         138.9484  138.9212  163.1760 C.ar    1  UNL1        0.1362
     28 C         139.0188  137.6120  163.9047 C.ar    1  UNL1        0.1211
     29 N         138.6684  137.5449  165.3617 N.ar    1  UNL1       -0.2390
     30 C         138.2477  138.7870  166.0899 C.ar    1  UNL1        0.1195
     31 C         138.1773  140.0962  165.3612 C.ar    1  UNL1        0.1196
     32 N         138.5277  140.1633  163.9042 N.ar    1  UNL1       -0.2375
@<TRIPOS>BOND
     1    15    16    1
     2    16     9    1
     3     9    10   ar
     4    10    11   ar
     5    11    12   ar
     6    12     1    1
     7     1     2    1
     8     2     3    1
     9     3     4    1
    10     4     5    1
    11     5     6    1
    12     6    17    1
    13    17    18    1
    14    18    19    1
    15    19    20    1
    16    20    21    1
    17    21    22   ar
    18    22    23   ar
    19    23    24   ar
    20    24    27    1
    21    27    28   ar
    22    28    29   ar
    23    29    30   ar
    24    30    31   ar
    25    31    32   ar
    26    24    25   ar
    27    25    26    1
    28     6     7    1
    29     7     8    1
    30    12    13   ar
    31    13    14   ar
    32    14     9   ar
    33     8     1    1
    34     8     4    1
    35    25    21   ar
    36    32    27   ar
