@<TRIPOS>MOLECULE
*****
 30 32 0 0 0
SMALL
GASTEIGER

@<TRIPOS>ATOM
      1 C         143.5956  138.4504  162.4217 C.3     1  UNL1        0.0327
      2 C         142.8442  138.8031  163.6711 C.ar    1  UNL1       -0.0013
      3 C         143.5667  138.8843  164.9831 C.ar    1  UNL1        0.0946
      4 N         142.8153  139.2370  166.2325 N.ar    1  UNL1       -0.2425
      5 C         141.3414  139.5084  166.1700 C.ar    1  UNL1        0.1028
      6 C         140.3428  139.8761  167.2270 C.ar    1  UNL1        0.0895
      7 C         139.0030  140.0222  166.5684 C.ar    1  UNL1        0.0823
      8 N         139.1737  139.7447  165.1042 N.ar    1  UNL1       -0.3190
      9 C         140.6189  139.4271  164.8580 C.ar    1  UNL1        0.0780
     10 C         141.3703  139.0745  163.6086 C.ar    1  UNL1        0.0160
     11 C         140.6329  140.0647  168.6866 C.2     1  UNL1        0.2489
     12 O         139.5393  139.8876  169.6977 O.2     1  UNL1       -0.2700
     13 N         142.0168  140.4304  169.1350 N.am    1  UNL1       -0.2984
     14 H         142.7347  140.5467  168.4714 H       1  UNL1        0.1498
     15 C         142.3070  140.6190  170.5945 C.3     1  UNL1        0.1215
     16 C         141.9002  141.8885  171.2822 C.3     1  UNL1        0.1583
     17 O         140.5135  142.0302  171.8362 O.3     1  UNL1       -0.3802
     18 H         139.8726  142.0275  171.1082 H       1  UNL1        0.2105
     19 C         138.0895  139.7788  164.0681 C.3     1  UNL1        0.1518
     20 C         138.1605  140.7654  162.9406 C.ar    1  UNL1        0.0841
     21 N         138.3788  140.2853  161.5364 N.ar    1  UNL1       -0.2265
     22 C         138.4498  141.2719  160.4088 C.ar    1  UNL1        0.2012
     23 N         138.3023  142.7388  160.6854 N.ar    1  UNL1       -0.1895
     24 C         138.0840  143.2190  162.0896 C.ar    1  UNL1        0.2282
     25 C         138.0130  142.2323  163.2172 C.ar    1  UNL1        0.0469
     26 C         137.7947  142.7126  164.6214 C.3     1  UNL1        0.0372
     27 O         137.9365  144.6859  162.3662 O.3     1  UNL1       -0.4070
     28 C         139.1546  145.5358  162.5755 C.3     1  UNL1        0.5097
     29 F         140.0875  145.2423  163.7129 F       1  UNL1       -0.1549
     30 F         139.4400  146.6792  161.6475 F       1  UNL1       -0.1549
@<TRIPOS>BOND
     1     1     2    1
     2     2     3   ar
     3     3     4   ar
     4     4     5   ar
     5     5     6   ar
     6     6    11    1
     7    11    12    2
     8    11    13   am
     9    13    15    1
    10    15    16    1
    11    16    17    1
    12     6     7   ar
    13     7     8   ar
    14     8    19    1
    15    19    20    1
    16    20    21   ar
    17    21    22   ar
    18    22    23   ar
    19    23    24   ar
    20    24    27    1
    21    27    28    1
    22    28    29    1
    23    28    30    1
    24    24    25   ar
    25    25    26    1
    26     8     9   ar
    27     9    10   ar
    28    10     2   ar
    29     9     5   ar
    30    25    20   ar
    31    13    14    1
    32    17    18    1
@<TRIPOS>MOLECULE
*****
 30 32 0 0 0
SMALL
GASTEIGER

@<TRIPOS>ATOM
      1 C         145.4056  142.3985  164.3290 C.3     1  UNL1        0.0327
      2 C         144.2051  143.0539  163.7131 C.ar    1  UNL1       -0.0013
      3 C         144.2868  143.6154  162.3246 C.ar    1  UNL1        0.0946
      4 N         143.0864  144.2708  161.7088 N.ar    1  UNL1       -0.2425
      5 C         141.8042  144.3648  162.4814 C.ar    1  UNL1        0.1028
      6 C         140.4662  144.9497  162.1385 C.ar    1  UNL1        0.0895
      7 C         139.5575  144.7498  163.3151 C.ar    1  UNL1        0.0823
      8 N         140.3339  144.0412  164.3852 N.ar    1  UNL1       -0.3190
      9 C         141.7224  143.8033  163.8699 C.ar    1  UNL1        0.0780
     10 C         142.9229  143.1478  164.4858 C.ar    1  UNL1        0.0160
     11 C         140.1010  145.6174  160.8459 C.2     1  UNL1        0.2489
     12 O         139.2481  146.8513  160.8538 O.2     1  UNL1       -0.2700
     13 N         140.5888  145.0513  159.5453 N.am    1  UNL1       -0.2984
     14 H         141.1486  144.2414  159.5401 H       1  UNL1        0.1498
     15 C         140.2236  145.7190  158.2527 C.3     1  UNL1        0.1215
     16 C         141.2993  146.1391  157.2955 C.3     1  UNL1        0.1583
     17 O         142.6971  146.3657  157.7904 O.3     1  UNL1       -0.3802
     18 H         142.7079  147.1273  158.3912 H       1  UNL1        0.2105
     19 C         139.8132  143.6409  165.7338 C.3     1  UNL1        0.1518
     20 C         139.7964  142.1949  166.1322 C.ar    1  UNL1        0.0841
     21 N         139.3204  141.1550  165.1617 N.ar    1  UNL1       -0.2265
     22 C         139.3035  139.7090  165.5601 C.ar    1  UNL1        0.2012
     23 N         139.7627  139.3028  166.9292 N.ar    1  UNL1       -0.1895
     24 C         140.2387  140.3428  167.8997 C.ar    1  UNL1        0.2282
     25 C         140.2556  141.7889  167.5013 C.ar    1  UNL1        0.0469
     26 C         140.7315  142.8287  168.4719 C.3     1  UNL1        0.0372
     27 O         140.6978  139.9367  169.2688 O.3     1  UNL1       -0.4070
     28 C         142.1345  139.5732  169.5009 C.3     1  UNL1        0.5097
     29 F         142.4849  138.2381  170.0881 F       1  UNL1       -0.1549
     30 F         143.2208  140.5447  169.1458 F       1  UNL1       -0.1549
@<TRIPOS>BOND
     1     1     2    1
     2     2     3   ar
     3     3     4   ar
     4     4     5   ar
     5     5     6   ar
     6     6    11    1
     7    11    12    2
     8    11    13   am
     9    13    15    1
    10    15    16    1
    11    16    17    1
    12     6     7   ar
    13     7     8   ar
    14     8    19    1
    15    19    20    1
    16    20    21   ar
    17    21    22   ar
    18    22    23   ar
    19    23    24   ar
    20    24    27    1
    21    27    28    1
    22    28    29    1
    23    28    30    1
    24    24    25   ar
    25    25    26    1
    26     8     9   ar
    27     9    10   ar
    28    10     2   ar
    29     9     5   ar
    30    25    20   ar
    31    13    14    1
    32    17    18    1
@<TRIPOS>MOLECULE
*****
 30 32 0 0 0
SMALL
GASTEIGER

@<TRIPOS>ATOM
      1 C         138.2425  144.9355  165.4791 C.3     1  UNL1        0.0327
      2 C         138.2618  144.0296  164.2837 C.ar    1  UNL1       -0.0013
      3 C         138.0970  144.6013  162.9068 C.ar    1  UNL1        0.0946
      4 N         138.1162  143.6954  161.7114 N.ar    1  UNL1       -0.2425
      5 C         138.3003  142.2179  161.8929 C.ar    1  UNL1        0.1028
      6 C         138.3610  141.0858  160.9107 C.ar    1  UNL1        0.0895
      7 C         138.5633  139.8144  161.6807 C.ar    1  UNL1        0.0823
      8 N         138.6276  140.1608  163.1387 N.ar    1  UNL1       -0.3190
      9 C         138.4651  141.6462  163.2699 C.ar    1  UNL1        0.0780
     10 C         138.4458  142.5521  164.4653 C.ar    1  UNL1        0.0160
     11 C         138.2405  141.2042  159.4203 C.2     1  UNL1        0.2489
     12 O         137.7194  140.0505  158.6159 O.2     1  UNL1       -0.2700
     13 N         138.6412  142.4765  158.7342 N.am    1  UNL1       -0.2984
     14 H         138.9833  143.2338  159.2622 H       1  UNL1        0.1498
     15 C         138.5207  142.5950  157.2438 C.3     1  UNL1        0.1215
     16 C         137.1777  142.8219  156.6155 C.3     1  UNL1        0.1583
     17 O         136.1671  141.7138  156.5851 O.3     1  UNL1       -0.3802
     18 H         136.4916  140.9957  156.0196 H       1  UNL1        0.2105
     19 C         138.8206  139.1919  164.2674 C.3     1  UNL1        0.1518
     20 C         139.7378  139.5366  165.4032 C.ar    1  UNL1        0.0841
     21 N         141.1191  140.0496  165.1226 N.ar    1  UNL1       -0.2265
     22 C         142.0362  140.3943  166.2584 C.ar    1  UNL1        0.2012
     23 N         141.5721  140.2261  167.6748 N.ar    1  UNL1       -0.1895
     24 C         140.1906  139.7131  167.9554 C.ar    1  UNL1        0.2282
     25 C         139.2735  139.3684  166.8196 C.ar    1  UNL1        0.0469
     26 C         137.8921  138.8554  167.1003 C.3     1  UNL1        0.0372
     27 O         139.7264  139.5449  169.3718 O.3     1  UNL1       -0.4070
     28 C         138.8186  140.5665  169.9899 C.3     1  UNL1        0.5097
     29 F         139.2567  141.9978  170.0878 F       1  UNL1       -0.1549
     30 F         137.4726  140.1570  170.5100 F       1  UNL1       -0.1549
@<TRIPOS>BOND
     1     1     2    1
     2     2     3   ar
     3     3     4   ar
     4     4     5   ar
     5     5     6   ar
     6     6    11    1
     7    11    12    2
     8    11    13   am
     9    13    15    1
    10    15    16    1
    11    16    17    1
    12     6     7   ar
    13     7     8   ar
    14     8    19    1
    15    19    20    1
    16    20    21   ar
    17    21    22   ar
    18    22    23   ar
    19    23    24   ar
    20    24    27    1
    21    27    28    1
    22    28    29    1
    23    28    30    1
    24    24    25   ar
    25    25    26    1
    26     8     9   ar
    27     9    10   ar
    28    10     2   ar
    29     9     5   ar
    30    25    20   ar
    31    13    14    1
    32    17    18    1
@<TRIPOS>MOLECULE
*****
 30 32 0 0 0
SMALL
GASTEIGER

@<TRIPOS>ATOM
      1 C         145.2328  142.3201  164.4155 C.3     1  UNL1        0.0327
      2 C         144.2230  142.9796  163.5237 C.ar    1  UNL1       -0.0013
      3 C         144.5663  143.2784  162.0945 C.ar    1  UNL1        0.0946
      4 N         143.5564  143.9379  161.2027 N.ar    1  UNL1       -0.2425
      5 C         142.2033  144.2986  161.7401 C.ar    1  UNL1        0.1028
      6 C         141.0119  144.9511  161.1039 C.ar    1  UNL1        0.0895
      7 C         139.9322  145.0555  162.1400 C.ar    1  UNL1        0.0823
      8 N         140.4563  144.4676  163.4165 N.ar    1  UNL1       -0.3190
      9 C         141.8600  143.9998  163.1694 C.ar    1  UNL1        0.0780
     10 C         142.8698  143.3403  164.0612 C.ar    1  UNL1        0.0160
     11 C         140.9169  145.4173  159.6814 C.2     1  UNL1        0.2489
     12 O         139.6364  146.0074  159.1694 O.2     1  UNL1       -0.2700
     13 N         142.1023  145.2934  158.7707 N.am    1  UNL1       -0.2984
     14 H         142.9428  144.9062  159.1067 H       1  UNL1        0.1498
     15 C         142.0073  145.7596  157.3482 C.3     1  UNL1        0.1215
     16 C         142.1629  144.7776  156.2251 C.3     1  UNL1        0.1583
     17 O         143.2922  144.9271  155.2492 O.3     1  UNL1       -0.3802
     18 H         143.1710  145.7417  154.7368 H       1  UNL1        0.2105
     19 C         139.7083  144.3654  164.7126 C.3     1  UNL1        0.1518
     20 C         139.7168  143.0790  165.4841 C.ar    1  UNL1        0.0841
     21 N         140.6000  142.9320  166.6876 N.ar    1  UNL1       -0.2265
     22 C         140.6085  141.6457  167.4590 C.ar    1  UNL1        0.2012
     23 N         139.7339  140.5062  167.0270 N.ar    1  UNL1       -0.1895
     24 C         138.8508  140.6532  165.8234 C.ar    1  UNL1        0.2282
     25 C         138.8422  141.9395  165.0520 C.ar    1  UNL1        0.0469
     26 C         137.9590  142.0864  163.8485 C.3     1  UNL1        0.0372
     27 O         137.9762  139.5137  165.3914 O.3     1  UNL1       -0.4070
     28 C         138.0968  138.1786  166.0644 C.3     1  UNL1        0.5097
     29 F         137.2808  137.8784  167.2867 F       1  UNL1       -0.1549
     30 F         139.0334  137.1437  165.5153 F       1  UNL1       -0.1549
@<TRIPOS>BOND
     1     1     2    1
     2     2     3   ar
     3     3     4   ar
     4     4     5   ar
     5     5     6   ar
     6     6    11    1
     7    11    12    2
     8    11    13   am
     9    13    15    1
    10    15    16    1
    11    16    17    1
    12     6     7   ar
    13     7     8   ar
    14     8    19    1
    15    19    20    1
    16    20    21   ar
    17    21    22   ar
    18    22    23   ar
    19    23    24   ar
    20    24    27    1
    21    27    28    1
    22    28    29    1
    23    28    30    1
    24    24    25   ar
    25    25    26    1
    26     8     9   ar
    27     9    10   ar
    28    10     2   ar
    29     9     5   ar
    30    25    20   ar
    31    13    14    1
    32    17    18    1
@<TRIPOS>MOLECULE
*****
 30 32 0 0 0
SMALL
GASTEIGER

@<TRIPOS>ATOM
      1 C         143.7805  138.4902  162.5791 C.3     1  UNL1        0.0327
      2 C         143.0288  138.8415  163.8287 C.ar    1  UNL1       -0.0013
      3 C         143.7263  138.8139  165.1564 C.ar    1  UNL1        0.0946
      4 N         142.9745  139.1652  166.4059 N.ar    1  UNL1       -0.2425
      5 C         141.5253  139.5440  166.3279 C.ar    1  UNL1        0.1028
      6 C         140.5322  139.9364  167.3814 C.ar    1  UNL1        0.0895
      7 C         139.2210  140.2065  166.7048 C.ar    1  UNL1        0.0823
      8 N         139.4036  139.9811  165.2332 N.ar    1  UNL1       -0.3190
      9 C         140.8278  139.5716  165.0002 C.ar    1  UNL1        0.0780
     10 C         141.5795  139.2203  163.7506 C.ar    1  UNL1        0.0160
     11 C         140.8029  140.0405  168.8531 C.2     1  UNL1        0.2489
     12 O         139.7050  139.7699  169.8386 O.2     1  UNL1       -0.2700
     13 N         142.1716  140.4151  169.3393 N.am    1  UNL1       -0.2984
     14 H         142.8923  140.5927  168.6924 H       1  UNL1        0.1498
     15 C         142.4423  140.5191  170.8110 C.3     1  UNL1        0.1215
     16 C         142.0072  141.7380  171.5693 C.3     1  UNL1        0.1583
     17 O         140.5560  141.9452  171.8873 O.3     1  UNL1       -0.3802
     18 H         140.0608  142.0806  171.0643 H       1  UNL1        0.2105
     19 C         138.3476  140.1375  164.1795 C.3     1  UNL1        0.1518
     20 C         138.1819  141.4502  163.4728 C.ar    1  UNL1        0.0841
     21 N         137.8721  142.6905  164.2574 N.ar    1  UNL1       -0.2265
     22 C         137.7064  144.0032  163.5507 C.ar    1  UNL1        0.2012
     23 N         137.8506  144.0756  162.0594 N.ar    1  UNL1       -0.1895
     24 C         138.1604  142.8352  161.2748 C.ar    1  UNL1        0.2282
     25 C         138.3261  141.5226  161.9815 C.ar    1  UNL1        0.0469
     26 C         138.6359  140.2823  161.1968 C.3     1  UNL1        0.0372
     27 O         138.3046  142.9077  159.7835 O.3     1  UNL1       -0.4070
     28 C         139.6003  143.3574  159.1762 C.3     1  UNL1        0.5097
     29 F         140.3608  142.4391  158.2660 F       1  UNL1       -0.1549
     30 F         140.1356  144.7255  159.4790 F       1  UNL1       -0.1549
@<TRIPOS>BOND
     1     1     2    1
     2     2     3   ar
     3     3     4   ar
     4     4     5   ar
     5     5     6   ar
     6     6    11    1
     7    11    12    2
     8    11    13   am
     9    13    15    1
    10    15    16    1
    11    16    17    1
    12     6     7   ar
    13     7     8   ar
    14     8    19    1
    15    19    20    1
    16    20    21   ar
    17    21    22   ar
    18    22    23   ar
    19    23    24   ar
    20    24    27    1
    21    27    28    1
    22    28    29    1
    23    28    30    1
    24    24    25   ar
    25    25    26    1
    26     8     9   ar
    27     9    10   ar
    28    10     2   ar
    29     9     5   ar
    30    25    20   ar
    31    13    14    1
    32    17    18    1
@<TRIPOS>MOLECULE
*****
 30 32 0 0 0
SMALL
GASTEIGER

@<TRIPOS>ATOM
      1 C         137.7075  144.2414  163.2562 C.3     1  UNL1        0.0327
      2 C         138.4719  143.4414  164.2689 C.ar    1  UNL1       -0.0013
      3 C         139.2188  144.1388  165.3669 C.ar    1  UNL1        0.0946
      4 N         139.9832  143.3388  166.3797 N.ar    1  UNL1       -0.2425
      5 C         140.0008  141.8414  166.2943 C.ar    1  UNL1        0.1028
      6 C         140.6610  140.7953  167.1428 C.ar    1  UNL1        0.0895
      7 C         140.3221  139.4514  166.5692 C.ar    1  UNL1        0.0823
      8 N         139.4525  139.6668  165.3661 N.ar    1  UNL1       -0.3190
      9 C         139.2540  141.1439  165.1963 C.ar    1  UNL1        0.0780
     10 C         138.4895  141.9440  164.1836 C.ar    1  UNL1        0.0160
     11 C         141.5108  141.0488  168.3526 C.2     1  UNL1        0.2489
     12 O         141.2924  140.2501  169.6033 O.2     1  UNL1       -0.2700
     13 N         142.5792  142.1009  168.3116 N.am    1  UNL1       -0.2984
     14 H         142.7226  142.6251  167.4907 H       1  UNL1        0.1498
     15 C         143.4290  142.3543  169.5214 C.3     1  UNL1        0.1215
     16 C         142.8619  143.0986  170.6938 C.3     1  UNL1        0.1583
     17 O         142.1916  142.3476  171.8059 O.3     1  UNL1       -0.3802
     18 H         141.3823  141.9298  171.4720 H       1  UNL1        0.2105
     19 C         138.8817  138.5936  164.4873 C.3     1  UNL1        0.1518
     20 C         139.1824  138.5890  163.0177 C.ar    1  UNL1        0.0841
     21 N         138.1322  139.0168  162.0359 N.ar    1  UNL1       -0.2265
     22 C         138.4328  139.0121  160.5664 C.ar    1  UNL1        0.2012
     23 N         139.7837  138.5796  160.0786 N.ar    1  UNL1       -0.1895
     24 C         140.8340  138.1517  161.0605 C.ar    1  UNL1        0.2282
     25 C         140.5333  138.1564  162.5300 C.ar    1  UNL1        0.0469
     26 C         141.5836  137.7285  163.5117 C.3     1  UNL1        0.0372
     27 O         142.1849  137.7192  160.5727 O.3     1  UNL1       -0.4070
     28 C         142.5893  137.9829  159.1525 C.3     1  UNL1        0.5097
     29 F         142.6991  139.3932  158.6534 F       1  UNL1       -0.1549
     30 F         142.8840  136.8364  158.2313 F       1  UNL1       -0.1549
@<TRIPOS>BOND
     1     1     2    1
     2     2     3   ar
     3     3     4   ar
     4     4     5   ar
     5     5     6   ar
     6     6    11    1
     7    11    12    2
     8    11    13   am
     9    13    15    1
    10    15    16    1
    11    16    17    1
    12     6     7   ar
    13     7     8   ar
    14     8    19    1
    15    19    20    1
    16    20    21   ar
    17    21    22   ar
    18    22    23   ar
    19    23    24   ar
    20    24    27    1
    21    27    28    1
    22    28    29    1
    23    28    30    1
    24    24    25   ar
    25    25    26    1
    26     8     9   ar
    27     9    10   ar
    28    10     2   ar
    29     9     5   ar
    30    25    20   ar
    31    13    14    1
    32    17    18    1
@<TRIPOS>MOLECULE
*****
 30 32 0 0 0
SMALL
GASTEIGER

@<TRIPOS>ATOM
      1 C         138.4897  144.8452  165.5811 C.3     1  UNL1        0.0327
      2 C         139.2576  144.6855  164.3025 C.ar    1  UNL1       -0.0013
      3 C         138.6147  145.0344  162.9930 C.ar    1  UNL1        0.0946
      4 N         139.3827  144.8747  161.7144 N.ar    1  UNL1       -0.2425
      5 C         140.7935  144.3661  161.7454 C.ar    1  UNL1        0.1028
      6 C         141.7911  144.1070  160.6557 C.ar    1  UNL1        0.0895
      7 C         143.0507  143.5980  161.2918 C.ar    1  UNL1        0.0823
      8 N         142.8314  143.5426  162.7746 N.ar    1  UNL1       -0.3190
      9 C         141.4363  144.0173  163.0549 C.ar    1  UNL1        0.0780
     10 C         140.6684  144.1770  164.3335 C.ar    1  UNL1        0.0160
     11 C         141.5684  144.3196  159.1876 C.2     1  UNL1        0.2489
     12 O         142.7230  144.6713  158.2970 O.2     1  UNL1       -0.2700
     13 N         140.1910  144.1804  158.6101 N.am    1  UNL1       -0.2984
     14 H         139.4332  143.9495  159.1946 H       1  UNL1        0.1498
     15 C         139.9683  144.3929  157.1421 C.3     1  UNL1        0.1215
     16 C         139.9078  145.7849  156.5864 C.3     1  UNL1        0.1583
     17 O         141.1438  146.6341  156.5544 O.3     1  UNL1       -0.3802
     18 H         141.4227  146.8335  157.4618 H       1  UNL1        0.2105
     19 C         143.8315  143.0916  163.7975 C.3     1  UNL1        0.1518
     20 C         143.4349  142.0942  164.8453 C.ar    1  UNL1        0.0841
     21 N         143.2014  142.5426  166.2575 N.ar    1  UNL1       -0.2265
     22 C         142.8048  141.5452  167.3053 C.ar    1  UNL1        0.2012
     23 N         142.6417  140.0993  166.9409 N.ar    1  UNL1       -0.1895
     24 C         142.8753  139.6509  165.5286 C.ar    1  UNL1        0.2282
     25 C         143.2719  140.6483  164.4808 C.ar    1  UNL1        0.0469
     26 C         143.5054  140.1998  163.0686 C.3     1  UNL1        0.0372
     27 O         142.7122  138.2050  165.1642 O.3     1  UNL1       -0.4070
     28 C         141.3606  137.6741  164.7882 C.3     1  UNL1        0.5097
     29 F         140.1282  138.2358  165.4330 F       1  UNL1       -0.1549
     30 F         141.2412  136.5815  163.7675 F       1  UNL1       -0.1549
@<TRIPOS>BOND
     1     1     2    1
     2     2     3   ar
     3     3     4   ar
     4     4     5   ar
     5     5     6   ar
     6     6    11    1
     7    11    12    2
     8    11    13   am
     9    13    15    1
    10    15    16    1
    11    16    17    1
    12     6     7   ar
    13     7     8   ar
    14     8    19    1
    15    19    20    1
    16    20    21   ar
    17    21    22   ar
    18    22    23   ar
    19    23    24   ar
    20    24    27    1
    21    27    28    1
    22    28    29    1
    23    28    30    1
    24    24    25   ar
    25    25    26    1
    26     8     9   ar
    27     9    10   ar
    28    10     2   ar
    29     9     5   ar
    30    25    20   ar
    31    13    14    1
    32    17    18    1
@<TRIPOS>MOLECULE
*****
 30 32 0 0 0
SMALL
GASTEIGER

@<TRIPOS>ATOM
      1 C         139.7883  145.7601  162.3563 C.3     1  UNL1        0.0327
      2 C         140.2435  144.8709  163.4753 C.ar    1  UNL1       -0.0013
      3 C         139.3401  144.6152  164.6450 C.ar    1  UNL1        0.0946
      4 N         139.7953  143.7260  165.7640 N.ar    1  UNL1       -0.2425
      5 C         141.1540  143.0926  165.7133 C.ar    1  UNL1        0.1028
      6 C         141.8709  142.1775  166.6613 C.ar    1  UNL1        0.0895
      7 C         143.2175  141.8677  166.0774 C.ar    1  UNL1        0.0823
      8 N         143.3328  142.5913  164.7686 N.ar    1  UNL1       -0.3190
      9 C         142.0575  143.3483  164.5435 C.ar    1  UNL1        0.0780
     10 C         141.6022  144.2375  163.4245 C.ar    1  UNL1        0.0160
     11 C         141.3353  141.6627  167.9644 C.2     1  UNL1        0.2489
     12 O         141.7159  140.2931  168.4431 O.2     1  UNL1       -0.2700
     13 N         140.4189  142.5175  168.7887 N.am    1  UNL1       -0.2984
     14 H         140.1690  143.4164  168.4746 H       1  UNL1        0.1498
     15 C         139.8833  142.0027  170.0918 C.3     1  UNL1        0.1215
     16 C         140.7824  141.9122  171.2890 C.3     1  UNL1        0.1583
     17 O         141.5007  140.6308  171.5925 O.3     1  UNL1       -0.3802
     18 H         140.8547  139.9447  171.8224 H       1  UNL1        0.2105
     19 C         144.5157  142.5628  163.8467 C.3     1  UNL1        0.1518
     20 C         144.3586  142.0653  162.4403 C.ar    1  UNL1        0.0841
     21 N         144.2018  143.0417  161.3124 N.ar    1  UNL1       -0.2265
     22 C         144.0448  142.5442  159.9061 C.ar    1  UNL1        0.2012
     23 N         144.0446  141.0702  159.6276 N.ar    1  UNL1       -0.1895
     24 C         144.2014  140.0939  160.7555 C.ar    1  UNL1        0.2282
     25 C         144.3584  140.5914  162.1619 C.ar    1  UNL1        0.0469
     26 C         144.5153  139.6150  163.2897 C.3     1  UNL1        0.0372
     27 O         144.2012  138.6199  160.4770 O.3     1  UNL1       -0.4070
     28 C         142.9021  137.8851  160.3273 C.3     1  UNL1        0.5097
     29 F         142.3112  137.6766  158.9645 F       1  UNL1       -0.1549
     30 F         142.1939  137.3589  161.5403 F       1  UNL1       -0.1549
@<TRIPOS>BOND
     1     1     2    1
     2     2     3   ar
     3     3     4   ar
     4     4     5   ar
     5     5     6   ar
     6     6    11    1
     7    11    12    2
     8    11    13   am
     9    13    15    1
    10    15    16    1
    11    16    17    1
    12     6     7   ar
    13     7     8   ar
    14     8    19    1
    15    19    20    1
    16    20    21   ar
    17    21    22   ar
    18    22    23   ar
    19    23    24   ar
    20    24    27    1
    21    27    28    1
    22    28    29    1
    23    28    30    1
    24    24    25   ar
    25    25    26    1
    26     8     9   ar
    27     9    10   ar
    28    10     2   ar
    29     9     5   ar
    30    25    20   ar
    31    13    14    1
    32    17    18    1
@<TRIPOS>MOLECULE
*****
 30 32 0 0 0
SMALL
GASTEIGER

@<TRIPOS>ATOM
      1 C         138.7704  138.0578  162.1606 C.3     1  UNL1        0.0327
      2 C         139.5428  138.3911  163.4025 C.ar    1  UNL1       -0.0013
      3 C         138.8280  138.5419  164.7125 C.ar    1  UNL1        0.0946
      4 N         139.6004  138.8752  165.9544 N.ar    1  UNL1       -0.2425
      5 C         141.0877  139.0579  165.8862 C.ar    1  UNL1        0.1028
      6 C         142.1076  139.3878  166.9355 C.ar    1  UNL1        0.0895
      7 C         143.4528  139.4410  166.2739 C.ar    1  UNL1        0.0823
      8 N         143.2643  139.1439  164.8158 N.ar    1  UNL1       -0.3190
      9 C         141.8025  138.9072  164.5762 C.ar    1  UNL1        0.0780
     10 C         141.0301  138.5738  163.3343 C.ar    1  UNL1        0.0160
     11 C         141.8308  139.6232  168.3908 C.2     1  UNL1        0.2489
     12 O         142.9101  139.3919  169.4065 O.2     1  UNL1       -0.2700
     13 N         140.4748  140.0899  168.8305 N.am    1  UNL1       -0.2984
     14 H         139.7664  140.2418  168.1639 H       1  UNL1        0.1498
     15 C         140.1980  140.3253  170.2858 C.3     1  UNL1        0.1215
     16 C         141.0225  141.3140  171.0557 C.3     1  UNL1        0.1583
     17 O         142.1473  140.8366  171.9256 O.3     1  UNL1       -0.3802
     18 H         141.7885  140.3165  172.6616 H       1  UNL1        0.2105
     19 C         144.3472  139.0927  163.7792 C.3     1  UNL1        0.1518
     20 C         144.2548  139.9541  162.5548 C.ar    1  UNL1        0.0841
     21 N         144.3627  141.4452  162.6769 N.ar    1  UNL1       -0.2265
     22 C         144.2703  142.3067  161.4524 C.ar    1  UNL1        0.2012
     23 N         144.0700  141.6771  160.1058 N.ar    1  UNL1       -0.1895
     24 C         143.9622  140.1859  159.9837 C.ar    1  UNL1        0.2282
     25 C         144.0546  139.3244  161.2081 C.ar    1  UNL1        0.0469
     26 C         143.9467  137.8333  161.0859 C.3     1  UNL1        0.0372
     27 O         143.7619  139.5563  158.6370 O.3     1  UNL1       -0.4070
     28 C         144.0120  140.3539  157.3915 C.3     1  UNL1        0.5097
     29 F         145.3970  140.4408  156.8221 F       1  UNL1       -0.1549
     30 F         142.8772  141.0645  156.7154 F       1  UNL1       -0.1549
@<TRIPOS>BOND
     1     1     2    1
     2     2     3   ar
     3     3     4   ar
     4     4     5   ar
     5     5     6   ar
     6     6    11    1
     7    11    12    2
     8    11    13   am
     9    13    15    1
    10    15    16    1
    11    16    17    1
    12     6     7   ar
    13     7     8   ar
    14     8    19    1
    15    19    20    1
    16    20    21   ar
    17    21    22   ar
    18    22    23   ar
    19    23    24   ar
    20    24    27    1
    21    27    28    1
    22    28    29    1
    23    28    30    1
    24    24    25   ar
    25    25    26    1
    26     8     9   ar
    27     9    10   ar
    28    10     2   ar
    29     9     5   ar
    30    25    20   ar
    31    13    14    1
    32    17    18    1
