@<TRIPOS>MOLECULE
*****
 33 36 0 0 0
SMALL
GASTEIGER

@<TRIPOS>ATOM
      1 C         140.6931  139.9882  167.3668 C.ar    1  UNL1        0.0685
      2 C         141.0568  139.9089  168.8198 C.ar    1  UNL1        0.0885
      3 C         142.3652  139.3032  169.2334 C.ar    1  UNL1        0.1263
      4 N         143.3100  138.7769  168.1939 N.ar    1  UNL1       -0.1633
      5 N         142.9463  138.8562  166.7409 N.ar    1  UNL1       -0.2269
      6 C         143.6696  138.4237  165.5001 C.ar    1  UNL1        0.1019
      7 C         142.8082  138.7620  164.3196 C.ar    1  UNL1        0.0378
      8 C         141.5525  139.4037  164.8309 C.ar    1  UNL1        0.0234
      9 C         141.6378  139.4619  166.3273 C.ar    1  UNL1        0.0962
     10 C         143.1436  138.5040  162.8806 C.ar    1  UNL1        0.0770
     11 C         142.2547  137.8351  161.8743 C.ar    1  UNL1        0.0409
     12 C         142.9885  137.7872  160.5670 C.ar    1  UNL1        0.1214
     13 N         144.3310  138.4265  160.7651 N.ar    1  UNL1       -0.1711
     14 N         144.4268  138.8695  162.1951 N.ar    1  UNL1       -0.2756
     15 H         145.1967  139.3208  162.6107 H       1  UNL1        0.1889
     16 C         140.1120  140.4352  169.8593 C.2     1  UNL1        0.2456
     17 N         139.7329  139.5785  171.0307 N.am    1  UNL1       -0.3252
     18 O         139.5465  141.8181  169.7273 O.2     1  UNL1       -0.2703
     19 H         140.1041  138.6708  171.1173 H       1  UNL1        0.1453
     20 H         139.1128  139.9239  171.7129 H       1  UNL1        0.1453
     21 N         139.3846  140.5939  166.9532 N.pl3   1  UNL1       -0.3327
     22 H         138.5386  140.1965  167.2624 H       1  UNL1        0.1468
     23 C         138.0675  140.5882  165.1386 C.3     1  UNL1        0.0029
     24 C         138.5483  141.9733  164.8216 C.3     1  UNL1        0.0282
     25 C         137.6310  141.8517  163.6411 C.3     1  UNL1        0.0029
     26 C         139.3651  141.8052  166.0685 C.3     1  UNL1        0.0702
     27 C         140.1590  143.0610  166.2753 C.3     1  UNL1        0.0208
     28 C         139.8328  144.0051  165.1564 C.3     1  UNL1        0.0160
     29 C         138.8374  143.3328  164.2579 C.3     1  UNL1        0.0404
     30 C         137.8597  142.9271  163.1952 C.3     1  UNL1        0.0156
     31 N         138.9221  144.6077  163.4720 N.3     1  UNL1       -0.3231
     32 H         139.5773  145.2441  163.9260 H       1  UNL1        0.1188
     33 H         138.0004  145.0424  163.4290 H       1  UNL1        0.1188
@<TRIPOS>BOND
     1    23    24    1
     2    24    25    1
     3    24    26    1
     4    26    21    1
     5    21     1    1
     6     1     2   ar
     7     2    16    1
     8    16    17   am
     9    16    18    2
    10     2     3   ar
    11     3     4   ar
    12     4     5   ar
    13     5     6   ar
    14     6     7   ar
    15     7    10    1
    16    10    11   ar
    17    11    12   ar
    18    12    13   ar
    19    13    14   ar
    20     7     8   ar
    21     8     9   ar
    22    26    27    1
    23    27    28    1
    24    28    29    1
    25    29    30    1
    26    29    31    1
    27    29    24    1
    28     9     1   ar
    29     9     5   ar
    30    14    10   ar
    31    21    22    1
    32    17    19    1
    33    17    20    1
    34    14    15    1
    35    31    32    1
    36    31    33    1
@<TRIPOS>MOLECULE
*****
 33 36 0 0 0
SMALL
GASTEIGER

@<TRIPOS>ATOM
      1 C         141.8675  140.0360  167.4799 C.ar    1  UNL1        0.0685
      2 C         141.6783  140.2237  168.9561 C.ar    1  UNL1        0.0885
      3 C         140.3091  140.1081  169.5574 C.ar    1  UNL1        0.1263
      4 N         139.1288  139.8047  168.6827 N.ar    1  UNL1       -0.1633
      5 N         139.3180  139.6170  167.2065 N.ar    1  UNL1       -0.2269
      6 C         138.3507  139.3117  166.1015 C.ar    1  UNL1        0.1019
      7 C         139.1222  139.2386  164.8172 C.ar    1  UNL1        0.0378
      8 C         140.5663  139.4988  165.1285 C.ar    1  UNL1        0.0234
      9 C         140.6873  139.7327  166.6052 C.ar    1  UNL1        0.0962
     10 C         138.5500  138.9551  163.4599 C.ar    1  UNL1        0.0770
     11 C         137.9074  139.9571  162.5472 C.ar    1  UNL1        0.0409
     12 C         137.4802  139.2411  161.3002 C.ar    1  UNL1        0.1214
     13 N         137.8589  137.7966  161.4422 N.ar    1  UNL1       -0.1711
     14 N         138.5201  137.6199  162.7771 N.ar    1  UNL1       -0.2756
     15 H         138.8725  136.7758  163.1410 H       1  UNL1        0.1889
     16 C         142.8585  140.5271  169.8308 C.2     1  UNL1        0.2456
     17 N         143.2368  139.5834  170.9337 N.am    1  UNL1       -0.3252
     18 O         143.6603  141.7740  169.6027 O.2     1  UNL1       -0.2703
     19 H         142.7105  138.7649  171.0834 H       1  UNL1        0.1453
     20 H         144.0114  139.7824  171.5078 H       1  UNL1        0.1453
     21 N         143.2368  140.1517  166.8786 N.pl3   1  UNL1       -0.3327
     22 H         143.9495  139.5309  167.1542 H       1  UNL1        0.1468
     23 C         144.3131  139.5828  164.9957 C.3     1  UNL1        0.0029
     24 C         144.2256  141.0120  164.5489 C.3     1  UNL1        0.0282
     25 C         144.9492  140.5120  163.3339 C.3     1  UNL1        0.0029
     26 C         143.5202  141.2132  165.8573 C.3     1  UNL1        0.0702
     27 C         143.1480  142.6623  165.9652 C.3     1  UNL1        0.0208
     28 C         143.6233  143.3566  164.7235 C.3     1  UNL1        0.0160
     29 C         144.2893  142.3367  163.8482 C.3     1  UNL1        0.0404
     30 C         144.9996  141.5597  162.7797 C.3     1  UNL1        0.0156
     31 N         144.5015  143.4990  162.9240 N.3     1  UNL1       -0.3231
     32 H         144.1060  144.3416  163.3411 H       1  UNL1        0.1188
     33 H         144.0420  143.3129  162.0326 H       1  UNL1        0.1188
@<TRIPOS>BOND
     1    23    24    1
     2    24    25    1
     3    24    26    1
     4    26    21    1
     5    21     1    1
     6     1     2   ar
     7     2    16    1
     8    16    17   am
     9    16    18    2
    10     2     3   ar
    11     3     4   ar
    12     4     5   ar
    13     5     6   ar
    14     6     7   ar
    15     7    10    1
    16    10    11   ar
    17    11    12   ar
    18    12    13   ar
    19    13    14   ar
    20     7     8   ar
    21     8     9   ar
    22    26    27    1
    23    27    28    1
    24    28    29    1
    25    29    30    1
    26    29    31    1
    27    29    24    1
    28     9     1   ar
    29     9     5   ar
    30    14    10   ar
    31    21    22    1
    32    17    19    1
    33    17    20    1
    34    14    15    1
    35    31    32    1
    36    31    33    1
@<TRIPOS>MOLECULE
*****
 33 36 0 0 0
SMALL
GASTEIGER

@<TRIPOS>ATOM
      1 C         140.9075  138.9742  164.9024 C.ar    1  UNL1        0.0685
      2 C         139.7322  138.3031  164.2557 C.ar    1  UNL1        0.0885
      3 C         138.4005  138.2943  164.9457 C.ar    1  UNL1        0.1263
      4 N         138.2439  138.9566  166.2825 N.ar    1  UNL1       -0.1633
      5 N         139.4192  139.6277  166.9292 N.ar    1  UNL1       -0.2269
      6 C         139.5670  140.3572  168.2315 C.ar    1  UNL1        0.1019
      7 C         140.9903  140.8168  168.3463 C.ar    1  UNL1        0.0378
      8 C         141.7220  140.3715  167.1149 C.ar    1  UNL1        0.0234
      9 C         140.7510  139.6365  166.2391 C.ar    1  UNL1        0.0962
     10 C         141.5785  141.5867  169.4914 C.ar    1  UNL1        0.0770
     11 C         142.7548  142.5146  169.4182 C.ar    1  UNL1        0.0409
     12 C         142.9970  143.0652  170.7923 C.ar    1  UNL1        0.1214
     13 N         141.9704  142.4776  171.7148 N.ar    1  UNL1       -0.1711
     14 N         141.0937  141.5638  170.9107 N.ar    1  UNL1       -0.2756
     15 H         140.3336  141.0409  171.2542 H       1  UNL1        0.1889
     16 C         139.8888  137.6408  162.9189 C.2     1  UNL1        0.2456
     17 N         138.7542  137.6543  161.9378 N.am    1  UNL1       -0.3252
     18 O         141.1798  136.9650  162.5633 O.2     1  UNL1       -0.2703
     19 H         137.9069  138.0979  162.1712 H       1  UNL1        0.1453
     20 H         138.8569  137.2197  161.0605 H       1  UNL1        0.1453
     21 N         142.2394  138.9831  164.2123 N.pl3   1  UNL1       -0.3327
     22 H         142.7627  138.1522  164.1417 H       1  UNL1        0.1468
     23 C         144.4145  139.4628  164.4698 C.3     1  UNL1        0.0029
     24 C         144.1939  140.7350  163.7065 C.3     1  UNL1        0.0282
     25 C         145.6600  140.9461  163.9427 C.3     1  UNL1        0.0029
     26 C         142.7739  140.2579  163.6298 C.3     1  UNL1        0.0702
     27 C         141.9821  141.2794  162.8685 C.3     1  UNL1        0.0208
     28 C         142.9128  142.3878  162.4746 C.3     1  UNL1        0.0160
     29 C         144.2798  142.0513  162.9925 C.3     1  UNL1        0.0404
     30 C         145.7280  141.9873  163.3780 C.3     1  UNL1        0.0156
     31 N         144.6684  143.3543  162.3591 N.3     1  UNL1       -0.3231
     32 H         143.8491  143.7788  161.9244 H       1  UNL1        0.1188
     33 H         145.3820  143.1880  161.6496 H       1  UNL1        0.1188
@<TRIPOS>BOND
     1    23    24    1
     2    24    25    1
     3    24    26    1
     4    26    21    1
     5    21     1    1
     6     1     2   ar
     7     2    16    1
     8    16    17   am
     9    16    18    2
    10     2     3   ar
    11     3     4   ar
    12     4     5   ar
    13     5     6   ar
    14     6     7   ar
    15     7    10    1
    16    10    11   ar
    17    11    12   ar
    18    12    13   ar
    19    13    14   ar
    20     7     8   ar
    21     8     9   ar
    22    26    27    1
    23    27    28    1
    24    28    29    1
    25    29    30    1
    26    29    31    1
    27    29    24    1
    28     9     1   ar
    29     9     5   ar
    30    14    10   ar
    31    21    22    1
    32    17    19    1
    33    17    20    1
    34    14    15    1
    35    31    32    1
    36    31    33    1
@<TRIPOS>MOLECULE
*****
 33 36 0 0 0
SMALL
GASTEIGER

@<TRIPOS>ATOM
      1 C         142.1389  140.9823  167.2790 C.ar    1  UNL1        0.0685
      2 C         141.9904  140.7365  168.7513 C.ar    1  UNL1        0.0885
      3 C         141.0327  141.5633  169.5568 C.ar    1  UNL1        0.1263
      4 N         140.2233  142.6360  168.8902 N.ar    1  UNL1       -0.1633
      5 N         140.3717  142.8817  167.4179 N.ar    1  UNL1       -0.2269
      6 C         139.7129  143.8612  166.4925 C.ar    1  UNL1        0.1019
      7 C         140.2635  143.6397  165.1149 C.ar    1  UNL1        0.0378
      8 C         141.2626  142.5233  165.1890 C.ar    1  UNL1        0.0234
      9 C         141.3295  142.0549  166.6124 C.ar    1  UNL1        0.0962
     10 C         139.8819  144.4008  163.8799 C.ar    1  UNL1        0.0770
     11 C         140.8022  145.2347  163.0387 C.ar    1  UNL1        0.0409
     12 C         140.0022  145.8110  161.9083 C.ar    1  UNL1        0.1214
     13 N         138.5874  145.3334  162.0509 N.ar    1  UNL1       -0.1711
     14 N         138.5131  144.4618  163.2695 N.ar    1  UNL1       -0.2756
     15 H         137.7074  144.0093  163.6091 H       1  UNL1        0.1889
     16 C         142.7998  139.6638  169.4179 C.2     1  UNL1        0.2456
     17 N         143.2314  139.8277  170.8451 N.am    1  UNL1       -0.3252
     18 O         143.1775  138.4274  168.6574 O.2     1  UNL1       -0.2703
     19 H         142.9835  140.6393  171.3442 H       1  UNL1        0.1453
     20 H         143.7626  139.1237  171.2827 H       1  UNL1        0.1453
     21 N         143.0966  140.1554  166.4735 N.pl3   1  UNL1       -0.3327
     22 H         144.0620  140.1965  166.6624 H       1  UNL1        0.1468
     23 C         144.2682  139.9958  164.5683 C.3     1  UNL1        0.0029
     24 C         143.2350  139.0412  164.0476 C.3     1  UNL1        0.0282
     25 C         144.1024  139.0161  162.8241 C.3     1  UNL1        0.0029
     26 C         142.5836  139.2659  165.3799 C.3     1  UNL1        0.0702
     27 C         141.3291  138.4449  165.4269 C.3     1  UNL1        0.0208
     28 C         141.2052  137.7129  164.1236 C.3     1  UNL1        0.0160
     29 C         142.3831  138.0814  163.2711 C.3     1  UNL1        0.0404
     30 C         143.4286  138.2570  162.2100 C.3     1  UNL1        0.0156
     31 N         141.7498  137.1583  162.2728 N.3     1  UNL1       -0.3231
     32 H         140.8895  136.7737  162.6633 H       1  UNL1        0.1188
     33 H         142.3944  136.3981  162.0559 H       1  UNL1        0.1188
@<TRIPOS>BOND
     1    23    24    1
     2    24    25    1
     3    24    26    1
     4    26    21    1
     5    21     1    1
     6     1     2   ar
     7     2    16    1
     8    16    17   am
     9    16    18    2
    10     2     3   ar
    11     3     4   ar
    12     4     5   ar
    13     5     6   ar
    14     6     7   ar
    15     7    10    1
    16    10    11   ar
    17    11    12   ar
    18    12    13   ar
    19    13    14   ar
    20     7     8   ar
    21     8     9   ar
    22    26    27    1
    23    27    28    1
    24    28    29    1
    25    29    30    1
    26    29    31    1
    27    29    24    1
    28     9     1   ar
    29     9     5   ar
    30    14    10   ar
    31    21    22    1
    32    17    19    1
    33    17    20    1
    34    14    15    1
    35    31    32    1
    36    31    33    1
@<TRIPOS>MOLECULE
*****
 33 36 0 0 0
SMALL
GASTEIGER

@<TRIPOS>ATOM
      1 C         140.1892  139.6115  164.2563 C.ar    1  UNL1        0.0685
      2 C         139.4042  138.3828  163.9042 C.ar    1  UNL1        0.0885
      3 C         138.6180  137.6664  164.9618 C.ar    1  UNL1        0.1263
      4 N         138.6168  138.1787  166.3717 N.ar    1  UNL1       -0.1633
      5 N         139.4018  139.4075  166.7238 N.ar    1  UNL1       -0.2269
      6 C         139.5891  140.1421  168.0181 C.ar    1  UNL1        0.1019
      7 C         140.4912  141.3125  167.7603 C.ar    1  UNL1        0.0378
      8 C         140.8613  141.3013  166.3067 C.ar    1  UNL1        0.0234
      9 C         140.1880  140.1239  165.6661 C.ar    1  UNL1        0.0962
     10 C         140.9437  142.3178  168.7775 C.ar    1  UNL1        0.0770
     11 C         142.2663  142.3220  169.4850 C.ar    1  UNL1        0.0409
     12 C         142.2931  143.5021  170.4106 C.ar    1  UNL1        0.1214
     13 N         140.9870  144.2272  170.2752 N.ar    1  UNL1       -0.1711
     14 N         140.1530  143.4952  169.2658 N.ar    1  UNL1       -0.2756
     15 H         139.2459  143.7439  168.9749 H       1  UNL1        0.1889
     16 C         139.4055  137.8704  162.4944 C.2     1  UNL1        0.2456
     17 N         138.1089  137.6793  161.7648 N.am    1  UNL1       -0.3252
     18 O         140.7032  137.5493  161.8143 O.2     1  UNL1       -0.2703
     19 H         137.2571  137.8902  162.2112 H       1  UNL1        0.1453
     20 H         138.1097  137.3431  160.8395 H       1  UNL1        0.1453
     21 N         140.9754  140.3279  163.1986 N.pl3   1  UNL1       -0.3327
     22 H         140.5207  140.6740  162.3970 H       1  UNL1        0.1468
     23 C         141.8814  142.3045  162.6513 C.3     1  UNL1        0.0029
     24 C         143.2240  141.7654  163.0474 C.3     1  UNL1        0.0282
     25 C         143.7128  143.1265  162.6495 C.3     1  UNL1        0.0029
     26 C         142.4545  140.5170  163.3624 C.3     1  UNL1        0.0702
     27 C         143.4236  139.4907  163.8700 C.3     1  UNL1        0.0208
     28 C         144.7921  140.1049  163.8687 C.3     1  UNL1        0.0160
     29 C         144.6686  141.5107  163.3603 C.3     1  UNL1        0.0404
     30 C         144.8555  142.9251  162.8970 C.3     1  UNL1        0.0156
     31 N         146.1525  141.5518  163.5763 N.3     1  UNL1       -0.3231
     32 H         146.4683  140.6521  163.9385 H       1  UNL1        0.1188
     33 H         146.3782  142.2865  164.2469 H       1  UNL1        0.1188
@<TRIPOS>BOND
     1    23    24    1
     2    24    25    1
     3    24    26    1
     4    26    21    1
     5    21     1    1
     6     1     2   ar
     7     2    16    1
     8    16    17   am
     9    16    18    2
    10     2     3   ar
    11     3     4   ar
    12     4     5   ar
    13     5     6   ar
    14     6     7   ar
    15     7    10    1
    16    10    11   ar
    17    11    12   ar
    18    12    13   ar
    19    13    14   ar
    20     7     8   ar
    21     8     9   ar
    22    26    27    1
    23    27    28    1
    24    28    29    1
    25    29    30    1
    26    29    31    1
    27    29    24    1
    28     9     1   ar
    29     9     5   ar
    30    14    10   ar
    31    21    22    1
    32    17    19    1
    33    17    20    1
    34    14    15    1
    35    31    32    1
    36    31    33    1
@<TRIPOS>MOLECULE
*****
 33 36 0 0 0
SMALL
GASTEIGER

@<TRIPOS>ATOM
      1 C         140.9993  140.4650  166.9778 C.ar    1  UNL1        0.0685
      2 C         141.1323  140.6532  168.4600 C.ar    1  UNL1        0.0885
      3 C         142.1834  141.5723  169.0079 C.ar    1  UNL1        0.1263
      4 N         143.1016  142.3033  168.0737 N.ar    1  UNL1       -0.1633
      5 N         142.9686  142.1150  166.5915 N.ar    1  UNL1       -0.2269
      6 C         143.7245  142.6970  165.4340 C.ar    1  UNL1        0.1019
      7 C         143.1406  142.1376  164.1707 C.ar    1  UNL1        0.0378
      8 C         142.0237  141.2098  164.5474 C.ar    1  UNL1        0.0234
      9 C         141.9174  141.1959  166.0436 C.ar    1  UNL1        0.0962
     10 C         143.5939  142.4509  162.7756 C.ar    1  UNL1        0.0770
     11 C         144.8413  141.9394  162.1181 C.ar    1  UNL1        0.0409
     12 C         144.8977  142.5030  160.7292 C.ar    1  UNL1        0.1214
     13 N         143.6852  143.3630  160.5283 N.ar    1  UNL1       -0.1711
     14 N         142.8794  143.3308  161.7931 N.ar    1  UNL1       -0.2756
     15 H         142.0306  143.8040  161.9507 H       1  UNL1        0.1889
     16 C         140.2141  139.9222  169.3942 C.2     1  UNL1        0.2456
     17 N         140.7356  139.3941  170.6976 N.am    1  UNL1       -0.3252
     18 O         138.7745  139.7195  169.0249 O.2     1  UNL1       -0.2703
     19 H         141.6804  139.5272  170.9400 H       1  UNL1        0.1453
     20 H         140.1330  138.9144  171.3108 H       1  UNL1        0.1453
     21 N         139.9481  139.5458  166.4298 N.pl3   1  UNL1       -0.3327
     22 H         139.8002  138.6649  166.8437 H       1  UNL1        0.1468
     23 C         139.6791  138.1134  164.7259 C.3     1  UNL1        0.0029
     24 C         138.8389  139.1436  164.0312 C.3     1  UNL1        0.0282
     25 C         138.7313  138.1029  162.9565 C.3     1  UNL1        0.0029
     26 C         139.1221  139.9690  165.2513 C.3     1  UNL1        0.0702
     27 C         138.4345  141.2918  165.0860 C.3     1  UNL1        0.0208
     28 C         137.7263  141.2840  163.7637 C.3     1  UNL1        0.0160
     29 C         137.9762  139.9563  163.1119 C.3     1  UNL1        0.0404
     30 C         138.0489  138.7457  162.2293 C.3     1  UNL1        0.0156
     31 N         137.1287  140.5159  162.0080 N.3     1  UNL1       -0.3231
     32 H         136.8326  141.4609  162.2524 H       1  UNL1        0.1188
     33 H         136.3074  139.9254  161.8772 H       1  UNL1        0.1188
@<TRIPOS>BOND
     1    23    24    1
     2    24    25    1
     3    24    26    1
     4    26    21    1
     5    21     1    1
     6     1     2   ar
     7     2    16    1
     8    16    17   am
     9    16    18    2
    10     2     3   ar
    11     3     4   ar
    12     4     5   ar
    13     5     6   ar
    14     6     7   ar
    15     7    10    1
    16    10    11   ar
    17    11    12   ar
    18    12    13   ar
    19    13    14   ar
    20     7     8   ar
    21     8     9   ar
    22    26    27    1
    23    27    28    1
    24    28    29    1
    25    29    30    1
    26    29    31    1
    27    29    24    1
    28     9     1   ar
    29     9     5   ar
    30    14    10   ar
    31    21    22    1
    32    17    19    1
    33    17    20    1
    34    14    15    1
    35    31    32    1
    36    31    33    1
@<TRIPOS>MOLECULE
*****
 33 36 0 0 0
SMALL
GASTEIGER

@<TRIPOS>ATOM
      1 C         139.3411  141.4397  164.1517 C.ar    1  UNL1        0.0685
      2 C         138.6978  140.4267  163.2517 C.ar    1  UNL1        0.0885
      3 C         138.2535  139.1057  163.8060 C.ar    1  UNL1        0.1263
      4 N         138.4524  138.7976  165.2606 N.ar    1  UNL1       -0.1633
      5 N         139.0957  139.8105  166.1606 N.ar    1  UNL1       -0.2269
      6 C         139.4208  139.7893  167.6248 C.ar    1  UNL1        0.1019
      7 C         140.0661  141.0972  167.9752 C.ar    1  UNL1        0.0378
      8 C         140.1398  141.9268  166.7277 C.ar    1  UNL1        0.0234
      9 C         139.5401  141.1316  165.6062 C.ar    1  UNL1        0.0962
     10 C         140.5524  141.5042  169.3346 C.ar    1  UNL1        0.0770
     11 C         141.9739  141.8019  169.7099 C.ar    1  UNL1        0.0409
     12 C         142.0026  142.1666  171.1646 C.ar    1  UNL1        0.1214
     13 N         140.5989  142.0943  171.6884 N.ar    1  UNL1       -0.1711
     14 N         139.7026  141.6849  170.5574 N.ar    1  UNL1       -0.2756
     15 H         138.7278  141.5572  170.6086 H       1  UNL1        0.1889
     16 C         138.4989  140.7349  161.7971 C.2     1  UNL1        0.2456
     17 N         139.1662  139.8893  160.7533 N.am    1  UNL1       -0.3252
     18 O         137.6327  141.8885  161.3865 O.2     1  UNL1       -0.2703
     19 H         139.7348  139.1321  161.0228 H       1  UNL1        0.1453
     20 H         139.0357  140.0915  159.7987 H       1  UNL1        0.1453
     21 N         139.7855  142.7607  163.5973 N.pl3   1  UNL1       -0.3327
     22 H         139.1573  143.5181  163.5666 H       1  UNL1        0.1468
     23 C         140.9512  144.5743  164.2132 C.3     1  UNL1        0.0029
     24 C         142.1061  144.0723  163.3982 C.3     1  UNL1        0.0282
     25 C         142.7837  145.3218  163.8774 C.3     1  UNL1        0.0029
     26 C         141.1871  142.9278  163.0895 C.3     1  UNL1        0.0702
     27 C         141.9156  141.9796  162.1838 C.3     1  UNL1        0.0208
     28 C         143.2849  142.5382  161.9329 C.3     1  UNL1        0.0160
     29 C         143.4026  143.8315  162.6834 C.3     1  UNL1        0.0404
     30 C         143.8092  145.1313  163.3120 C.3     1  UNL1        0.0156
     31 N         144.7842  143.8624  162.1000 N.3     1  UNL1       -0.3231
     32 H         144.9283  143.0336  161.5232 H       1  UNL1        0.1188
     33 H         145.4713  143.8759  162.8537 H       1  UNL1        0.1188
@<TRIPOS>BOND
     1    23    24    1
     2    24    25    1
     3    24    26    1
     4    26    21    1
     5    21     1    1
     6     1     2   ar
     7     2    16    1
     8    16    17   am
     9    16    18    2
    10     2     3   ar
    11     3     4   ar
    12     4     5   ar
    13     5     6   ar
    14     6     7   ar
    15     7    10    1
    16    10    11   ar
    17    11    12   ar
    18    12    13   ar
    19    13    14   ar
    20     7     8   ar
    21     8     9   ar
    22    26    27    1
    23    27    28    1
    24    28    29    1
    25    29    30    1
    26    29    31    1
    27    29    24    1
    28     9     1   ar
    29     9     5   ar
    30    14    10   ar
    31    21    22    1
    32    17    19    1
    33    17    20    1
    34    14    15    1
    35    31    32    1
    36    31    33    1
@<TRIPOS>MOLECULE
*****
 33 36 0 0 0
SMALL
GASTEIGER

@<TRIPOS>ATOM
      1 C         140.6998  139.6768  164.2053 C.ar    1  UNL1        0.0685
      2 C         140.1269  138.4792  163.5070 C.ar    1  UNL1        0.0885
      3 C         139.1212  137.6134  164.2059 C.ar    1  UNL1        0.1263
      4 N         138.6881  137.9450  165.6033 N.ar    1  UNL1       -0.1633
      5 N         139.2610  139.1426  166.3016 N.ar    1  UNL1       -0.2269
      6 C         139.0269  139.7146  167.6683 C.ar    1  UNL1        0.1019
      7 C         139.8881  140.9341  167.8140 C.ar    1  UNL1        0.0378
      8 C         140.6544  141.1157  166.5374 C.ar    1  UNL1        0.0234
      9 C         140.2668  140.0084  165.6026 C.ar    1  UNL1        0.0962
     10 C         139.9689  141.8170  169.0240 C.ar    1  UNL1        0.0770
     11 C         140.4962  143.2209  169.0573 C.ar    1  UNL1        0.0409
     12 C         140.3897  143.7226  170.4669 C.ar    1  UNL1        0.1214
     13 N         139.7967  142.6288  171.3048 N.ar    1  UNL1       -0.1711
     14 N         139.5366  141.4510  170.4129 N.ar    1  UNL1       -0.2756
     15 H         139.1501  140.5892  170.6905 H       1  UNL1        0.1889
     16 C         140.5600  138.1476  162.1096 C.2     1  UNL1        0.2456
     17 N         139.5443  138.0681  161.0087 N.am    1  UNL1       -0.3252
     18 O         142.0086  137.8956  161.8132 O.2     1  UNL1       -0.2703
     19 H         138.5935  138.2335  161.2032 H       1  UNL1        0.1453
     20 H         139.8284  137.8504  160.0915 H       1  UNL1        0.1453
     21 N         141.7056  140.5427  163.5063 N.pl3   1  UNL1       -0.3327
     22 H         142.5253  140.1434  163.1348 H       1  UNL1        0.1468
     23 C         143.3494  141.9649  164.0565 C.3     1  UNL1        0.0029
     24 C         142.4441  143.1048  163.6945 C.3     1  UNL1        0.0282
     25 C         143.6149  143.9543  164.0914 C.3     1  UNL1        0.0029
     26 C         141.4626  142.0170  163.3734 C.3     1  UNL1        0.0702
     27 C         140.1954  142.6621  162.8959 C.3     1  UNL1        0.0208
     28 C         140.3937  144.1487  162.9220 C.3     1  UNL1        0.0160
     29 C         141.7835  144.4222  163.4156 C.3     1  UNL1        0.0404
     30 C         143.0924  144.9964  163.8707 C.3     1  UNL1        0.0156
     31 N         141.3966  145.8598  163.2318 N.3     1  UNL1       -0.3231
     32 H         140.4390  145.9124  162.8843 H       1  UNL1        0.1188
     33 H         142.0266  146.2982  162.5600 H       1  UNL1        0.1188
@<TRIPOS>BOND
     1    23    24    1
     2    24    25    1
     3    24    26    1
     4    26    21    1
     5    21     1    1
     6     1     2   ar
     7     2    16    1
     8    16    17   am
     9    16    18    2
    10     2     3   ar
    11     3     4   ar
    12     4     5   ar
    13     5     6   ar
    14     6     7   ar
    15     7    10    1
    16    10    11   ar
    17    11    12   ar
    18    12    13   ar
    19    13    14   ar
    20     7     8   ar
    21     8     9   ar
    22    26    27    1
    23    27    28    1
    24    28    29    1
    25    29    30    1
    26    29    31    1
    27    29    24    1
    28     9     1   ar
    29     9     5   ar
    30    14    10   ar
    31    21    22    1
    32    17    19    1
    33    17    20    1
    34    14    15    1
    35    31    32    1
    36    31    33    1
@<TRIPOS>MOLECULE
*****
 33 36 0 0 0
SMALL
GASTEIGER

@<TRIPOS>ATOM
      1 C         143.1394  141.3551  164.5008 C.ar    1  UNL1        0.0685
      2 C         143.8895  140.2874  163.7609 C.ar    1  UNL1        0.0885
      3 C         144.2353  139.0001  164.4486 C.ar    1  UNL1        0.1263
      4 N         143.8310  138.7803  165.8764 N.ar    1  UNL1       -0.1633
      5 N         143.0810  139.8480  166.6163 N.ar    1  UNL1       -0.2269
      6 C         142.5540  139.9158  168.0190 C.ar    1  UNL1        0.1019
      7 C         141.8825  141.2451  168.1981 C.ar    1  UNL1        0.0378
      8 C         141.9945  141.9989  166.9061 C.ar    1  UNL1        0.0234
      9 C         142.7352  141.1354  165.9284 C.ar    1  UNL1        0.0962
     10 C         141.2161  141.7347  169.4496 C.ar    1  UNL1        0.0770
     11 C         140.0780  142.7093  169.5189 C.ar    1  UNL1        0.0409
     12 C         139.7292  142.9126  170.9636 C.ar    1  UNL1        0.1214
     13 N         140.6518  142.0636  171.7872 N.ar    1  UNL1       -0.1711
     14 N         141.5708  141.3356  170.8514 N.ar    1  UNL1       -0.2756
     15 H         142.2818  140.7064  171.1116 H       1  UNL1        0.1889
     16 C         144.2938  140.5072  162.3331 C.2     1  UNL1        0.2456
     17 N         144.3436  139.3492  161.3811 N.am    1  UNL1       -0.3252
     18 O         144.6481  141.8849  161.8576 O.2     1  UNL1       -0.2703
     19 H         144.1110  138.4449  161.6933 H       1  UNL1        0.1453
     20 H         144.6089  139.4934  160.4440 H       1  UNL1        0.1453
     21 N         142.7937  142.6425  163.8130 N.pl3   1  UNL1       -0.3327
     22 H         143.4947  143.3116  163.6393 H       1  UNL1        0.1468
     23 C         142.2375  144.7083  163.1417 C.3     1  UNL1        0.0029
     24 C         140.8356  144.2252  162.9150 C.3     1  UNL1        0.0282
     25 C         140.5847  145.6410  162.4876 C.3     1  UNL1        0.0029
     26 C         141.3797  142.9105  163.3898 C.3     1  UNL1        0.0702
     27 C         140.2616  141.9108  163.3671 C.3     1  UNL1        0.0208
     28 C         139.0266  142.6077  162.8783 C.3     1  UNL1        0.0160
     29 C         139.3814  144.0381  162.5989 C.3     1  UNL1        0.0404
     30 C         139.4344  145.4929  162.2375 C.3     1  UNL1        0.0156
     31 N         137.9381  144.1551  162.2072 N.3     1  UNL1       -0.3231
     32 H         137.4795  143.2516  162.3250 H       1  UNL1        0.1188
     33 H         137.8730  144.4448  161.2314 H       1  UNL1        0.1188
@<TRIPOS>BOND
     1    23    24    1
     2    24    25    1
     3    24    26    1
     4    26    21    1
     5    21     1    1
     6     1     2   ar
     7     2    16    1
     8    16    17   am
     9    16    18    2
    10     2     3   ar
    11     3     4   ar
    12     4     5   ar
    13     5     6   ar
    14     6     7   ar
    15     7    10    1
    16    10    11   ar
    17    11    12   ar
    18    12    13   ar
    19    13    14   ar
    20     7     8   ar
    21     8     9   ar
    22    26    27    1
    23    27    28    1
    24    28    29    1
    25    29    30    1
    26    29    31    1
    27    29    24    1
    28     9     1   ar
    29     9     5   ar
    30    14    10   ar
    31    21    22    1
    32    17    19    1
    33    17    20    1
    34    14    15    1
    35    31    32    1
    36    31    33    1
