@<TRIPOS>MOLECULE
*****
 34 37 0 0 0
SMALL
GASTEIGER

@<TRIPOS>ATOM
      1 C         139.4915  142.1421  163.6810 C.2     1  UNL1        0.1397
      2 C         139.5583  142.0894  162.1834 C.2     1  UNL1        0.1355
      3 N         140.4524  141.0927  161.5072 N.pl3   1  UNL1       -0.1998
      4 C         141.2796  140.1488  162.3285 C.2     1  UNL1        0.3442
      5 N         141.2128  140.2015  163.8260 N.2     1  UNL1       -0.0580
      6 C         140.3187  141.1982  164.5023 C.3     1  UNL1        0.2695
      7 H         140.4963  141.0581  160.5243 H       1  UNL1        0.2983
      8 C         140.2519  141.2508  165.9999 C.ar    1  UNL1        0.0415
      9 C         141.0005  142.3145  166.7471 C.ar    1  UNL1        0.0034
     10 C         140.9337  142.3672  168.2446 C.ar    1  UNL1        0.0295
     11 C         140.1183  141.3563  168.9951 C.ar    1  UNL1        0.1410
     12 F         140.0516  141.4090  170.4927 F       1  UNL1       -0.2041
     13 C         139.3698  140.2926  168.2480 C.ar    1  UNL1        0.0408
     14 C         139.4366  140.2399  166.7503 C.ar    1  UNL1        0.0603
     15 CL        138.6880  139.1762  166.0032 Cl      1  UNL1       -0.0824
     16 C         142.1737  139.1521  161.6523 C.ar    1  UNL1        0.1931
     17 N         141.8973  138.4606  160.3502 N.ar    1  UNL1       -0.2297
     18 C         143.0539  137.5530  160.0526 C.ar    1  UNL1        0.1067
     19 C         144.0452  137.6837  161.1707 C.ar    1  UNL1        0.0577
     20 S         143.5012  138.6719  162.1594 S.2     1  UNL1       -0.0586
     21 C         138.5974  143.1388  164.3572 C.2     1  UNL1        0.3448
     22 O         137.1630  142.7955  164.6303 O.2     1  UNL1       -0.2450
     23 C         138.5887  145.1759  165.9697 C.3     1  UNL1        0.2559
     24 O         139.1378  144.4787  164.7603 O.3     1  UNL1       -0.4414
     25 C         138.7311  143.0333  161.3620 C.3     1  UNL1        0.1407
     26 N         139.2750  143.5837  160.0770 N.3     1  UNL1       -0.2584
     27 C         138.9469  142.9137  158.7757 C.3     1  UNL1        0.1052
     28 C         139.4909  143.4642  157.4907 C.3     1  UNL1        0.1595
     29 O         140.3629  144.6845  157.5071 O.3     1  UNL1       -0.3505
     30 C         140.6910  145.3545  158.8084 C.3     1  UNL1        0.1637
     31 C         140.1471  144.8041  160.0934 C.3     1  UNL1        0.1247
     32 C         140.4752  145.4741  161.3947 C.2     1  UNL1        0.0673
     33 O         139.7277  146.7052  161.8138 O.co2   1  UNL1       -0.5477
     34 O         141.5507  144.9130  162.2769 O.co2   1  UNL1       -0.5477
@<TRIPOS>UNITY_ATOM_ATTR
33 1
charge -1
@<TRIPOS>BOND
     1    23    24    1
     2    24    21    1
     3    21    22    2
     4    21     1    1
     5     1     2    2
     6     2    25    1
     7    25    26    1
     8    26    27    1
     9    27    28    1
    10    28    29    1
    11    29    30    1
    12    30    31    1
    13    31    32    1
    14    32    33   ar
    15    32    34   ar
    16     2     3    1
    17     3     4    1
    18     4    16    1
    19    16    17   ar
    20    17    18   ar
    21    18    19   ar
    22    19    20   ar
    23     4     5    2
    24     5     6    1
    25     6     8    1
    26     8     9   ar
    27     9    10   ar
    28    10    11   ar
    29    11    12    1
    30    11    13   ar
    31    13    14   ar
    32    14    15    1
    33     6     1    1
    34    14     8   ar
    35    31    26    1
    36    20    16   ar
    37     3     7    1
@<TRIPOS>MOLECULE
*****
 34 37 0 0 0
SMALL
GASTEIGER

@<TRIPOS>ATOM
      1 C         140.8001  139.7532  164.2515 C.2     1  UNL1        0.1397
      2 C         140.7558  139.8550  162.7557 C.2     1  UNL1        0.1355
      3 N         140.5762  141.1920  162.0998 N.pl3   1  UNL1       -0.1998
      4 C         140.4409  142.4273  162.9399 C.2     1  UNL1        0.3442
      5 N         140.4852  142.3255  164.4357 N.2     1  UNL1       -0.0580
      6 C         140.6648  140.9885  165.0915 C.3     1  UNL1        0.2695
      7 H         140.5471  141.2588  161.1180 H       1  UNL1        0.2983
      8 C         140.7091  140.8868  166.5875 C.ar    1  UNL1        0.0415
      9 C         139.5302  140.3412  167.3374 C.ar    1  UNL1        0.0034
     10 C         139.5744  140.2395  168.8332 C.ar    1  UNL1        0.0295
     11 C         140.7977  140.6834  169.5793 C.ar    1  UNL1        0.1410
     12 F         140.8420  140.5817  171.0752 F       1  UNL1       -0.2041
     13 C         141.9767  141.2290  168.8294 C.ar    1  UNL1        0.0408
     14 C         141.9324  141.3307  167.3335 C.ar    1  UNL1        0.0603
     15 CL        143.1114  141.8763  166.5836 Cl      1  UNL1       -0.0824
     16 C         140.2613  143.7643  162.2841 C.ar    1  UNL1        0.1931
     17 N         140.6867  144.1280  160.8924 N.ar    1  UNL1       -0.2297
     18 C         140.3131  145.5609  160.6530 C.ar    1  UNL1        0.1067
     19 C         139.6568  146.0828  161.8967 C.ar    1  UNL1        0.0577
     20 S         139.6248  144.9725  162.9048 S.2     1  UNL1       -0.0586
     21 C         140.9797  138.4162  164.9073 C.2     1  UNL1        0.3448
     22 O         139.8003  137.5086  165.0954 O.2     1  UNL1       -0.2450
     23 C         143.5596  138.7225  164.9083 C.3     1  UNL1        0.2559
     24 O         142.3386  137.9867  165.3750 O.3     1  UNL1       -0.4414
     25 C         140.8910  138.6196  161.9155 C.3     1  UNL1        0.1407
     26 N         141.1523  138.7388  160.4433 N.3     1  UNL1       -0.2584
     27 C         140.0061  138.7399  159.4758 C.3     1  UNL1        0.1052
     28 C         140.2674  138.8590  158.0035 C.3     1  UNL1        0.1595
     29 O         141.6750  138.9771  157.4988 O.3     1  UNL1       -0.3505
     30 C         142.8213  138.9760  158.4663 C.3     1  UNL1        0.1637
     31 C         142.5600  138.8568  159.9385 C.3     1  UNL1        0.1247
     32 C         143.7062  138.8558  160.9060 C.2     1  UNL1        0.0673
     33 O         144.2633  137.5563  161.4073 O.co2   1  UNL1       -0.5477
     34 O         144.2954  140.1540  161.3722 O.co2   1  UNL1       -0.5477
@<TRIPOS>UNITY_ATOM_ATTR
33 1
charge -1
@<TRIPOS>BOND
     1    23    24    1
     2    24    21    1
     3    21    22    2
     4    21     1    1
     5     1     2    2
     6     2    25    1
     7    25    26    1
     8    26    27    1
     9    27    28    1
    10    28    29    1
    11    29    30    1
    12    30    31    1
    13    31    32    1
    14    32    33   ar
    15    32    34   ar
    16     2     3    1
    17     3     4    1
    18     4    16    1
    19    16    17   ar
    20    17    18   ar
    21    18    19   ar
    22    19    20   ar
    23     4     5    2
    24     5     6    1
    25     6     8    1
    26     8     9   ar
    27     9    10   ar
    28    10    11   ar
    29    11    12    1
    30    11    13   ar
    31    13    14   ar
    32    14    15    1
    33     6     1    1
    34    14     8   ar
    35    31    26    1
    36    20    16   ar
    37     3     7    1
@<TRIPOS>MOLECULE
*****
 34 37 0 0 0
SMALL
GASTEIGER

@<TRIPOS>ATOM
      1 C         143.1161  140.2156  159.4254 C.2     1  UNL1        0.1397
      2 C         143.3456  139.2276  158.3204 C.2     1  UNL1        0.1355
      3 N         144.2434  139.5817  157.1721 N.pl3   1  UNL1       -0.1998
      4 C         144.9117  140.9239  157.1288 C.2     1  UNL1        0.3442
      5 N         144.6822  141.9119  158.2339 N.2     1  UNL1       -0.0580
      6 C         143.7844  141.5577  159.3821 C.3     1  UNL1        0.2695
      7 H         144.3940  138.9332  156.4468 H       1  UNL1        0.2983
      8 C         143.5550  142.5458  160.4872 C.ar    1  UNL1        0.0415
      9 C         144.5411  142.6552  161.6122 C.ar    1  UNL1        0.0034
     10 C         144.3117  143.6432  162.7172 C.ar    1  UNL1        0.0295
     11 C         143.0961  144.5219  162.6973 C.ar    1  UNL1        0.1410
     12 F         142.8667  145.5100  163.8023 F       1  UNL1       -0.2041
     13 C         142.1100  144.4125  161.5723 C.ar    1  UNL1        0.0408
     14 C         142.3394  143.4245  160.4672 C.ar    1  UNL1        0.0603
     15 CL        141.3533  143.3151  159.3423 Cl      1  UNL1       -0.0824
     16 C         145.8095  141.2781  155.9805 C.ar    1  UNL1        0.1931
     17 N         145.6767  140.7808  154.5716 N.ar    1  UNL1       -0.2297
     18 C         146.7828  141.3871  153.7599 C.ar    1  UNL1        0.1067
     19 C         147.5993  142.2590  154.6671 C.ar    1  UNL1        0.0577
     20 S         146.9977  142.1916  156.0396 S.2     1  UNL1       -0.0586
     21 C         142.2183  139.8614  160.5737 C.2     1  UNL1        0.3448
     22 O         140.7298  139.9662  160.4218 O.2     1  UNL1       -0.2450
     23 C         143.7795  138.2588  161.8945 C.3     1  UNL1        0.2559
     24 O         142.8091  139.4025  161.8738 O.3     1  UNL1       -0.4414
     25 C         142.6773  137.8853  158.3636 C.3     1  UNL1        0.1407
     26 N         141.7408  137.4781  157.2649 N.3     1  UNL1       -0.2584
     27 C         140.3170  137.9500  157.2797 C.3     1  UNL1        0.1052
     28 C         139.3805  137.5427  156.1810 C.3     1  UNL1        0.1595
     29 O         139.8677  136.6636  155.0676 O.3     1  UNL1       -0.3505
     30 C         141.2915  136.1917  155.0528 C.3     1  UNL1        0.1637
     31 C         142.2280  136.5989  156.1515 C.3     1  UNL1        0.1247
     32 C         143.6517  136.1270  156.1367 C.2     1  UNL1        0.0673
     33 O         144.7359  137.0298  155.6272 O.co2   1  UNL1       -0.5477
     34 O         143.9914  134.7523  156.6315 O.co2   1  UNL1       -0.5477
@<TRIPOS>UNITY_ATOM_ATTR
33 1
charge -1
@<TRIPOS>BOND
     1    23    24    1
     2    24    21    1
     3    21    22    2
     4    21     1    1
     5     1     2    2
     6     2    25    1
     7    25    26    1
     8    26    27    1
     9    27    28    1
    10    28    29    1
    11    29    30    1
    12    30    31    1
    13    31    32    1
    14    32    33   ar
    15    32    34   ar
    16     2     3    1
    17     3     4    1
    18     4    16    1
    19    16    17   ar
    20    17    18   ar
    21    18    19   ar
    22    19    20   ar
    23     4     5    2
    24     5     6    1
    25     6     8    1
    26     8     9   ar
    27     9    10   ar
    28    10    11   ar
    29    11    12    1
    30    11    13   ar
    31    13    14   ar
    32    14    15    1
    33     6     1    1
    34    14     8   ar
    35    31    26    1
    36    20    16   ar
    37     3     7    1
@<TRIPOS>MOLECULE
*****
 34 37 0 0 0
SMALL
GASTEIGER

@<TRIPOS>ATOM
      1 C         140.9056  140.4138  164.7743 C.2     1  UNL1        0.1397
      2 C         140.6474  140.2800  163.3028 C.2     1  UNL1        0.1355
      3 N         140.4446  141.5058  162.4624 N.pl3   1  UNL1       -0.1998
      4 C         140.5001  142.8654  163.0934 C.2     1  UNL1        0.3442
      5 N         140.7584  142.9992  164.5649 N.2     1  UNL1       -0.0580
      6 C         140.9611  141.7734  165.4054 C.3     1  UNL1        0.2695
      7 H         140.2751  141.4179  161.4966 H       1  UNL1        0.2983
      8 C         141.2194  141.9073  166.8769 C.ar    1  UNL1        0.0415
      9 C         140.1053  141.6876  167.8570 C.ar    1  UNL1        0.0034
     10 C         140.3635  141.8215  169.3285 C.ar    1  UNL1        0.0295
     11 C         141.7359  142.1751  169.8200 C.ar    1  UNL1        0.1410
     12 F         141.9941  142.3090  171.2915 F       1  UNL1       -0.2041
     13 C         142.8500  142.3948  168.8400 C.ar    1  UNL1        0.0408
     14 C         142.5918  142.2609  167.3684 C.ar    1  UNL1        0.0603
     15 CL        143.7059  142.4806  166.3884 Cl      1  UNL1       -0.0824
     16 C         140.2974  144.0912  162.2530 C.ar    1  UNL1        0.1931
     17 N         139.7185  145.3941  162.7193 N.ar    1  UNL1       -0.2297
     18 C         139.7013  146.3375  161.5532 C.ar    1  UNL1        0.1067
     19 C         140.2695  145.6176  160.3662 C.ar    1  UNL1        0.0577
     20 S         140.6380  144.2294  160.7987 S.2     1  UNL1       -0.0586
     21 C         141.1084  139.1880  165.6147 C.2     1  UNL1        0.3448
     22 O         142.4875  138.8068  166.0647 O.2     1  UNL1       -0.2450
     23 C         138.5527  138.9331  166.0065 C.3     1  UNL1        0.2559
     24 O         139.9319  138.3434  166.0052 O.3     1  UNL1       -0.4414
     25 C         140.5918  138.9203  162.6717 C.3     1  UNL1        0.1407
     26 N         140.6716  138.7819  161.1802 N.3     1  UNL1       -0.2584
     27 C         141.9888  138.4928  160.5233 C.3     1  UNL1        0.1052
     28 C         142.0685  138.3544  159.0317 C.3     1  UNL1        0.1595
     29 O         140.8313  138.5052  158.1973 O.3     1  UNL1       -0.3505
     30 C         139.5142  138.7943  158.8543 C.3     1  UNL1        0.1637
     31 C         139.4343  138.9327  160.3457 C.3     1  UNL1        0.1247
     32 C         138.1172  139.2218  161.0027 C.2     1  UNL1        0.0673
     33 O         137.2900  138.0973  161.5516 O.co2   1  UNL1       -0.5477
     34 O         137.6273  140.6354  161.1108 O.co2   1  UNL1       -0.5477
@<TRIPOS>UNITY_ATOM_ATTR
33 1
charge -1
@<TRIPOS>BOND
     1    23    24    1
     2    24    21    1
     3    21    22    2
     4    21     1    1
     5     1     2    2
     6     2    25    1
     7    25    26    1
     8    26    27    1
     9    27    28    1
    10    28    29    1
    11    29    30    1
    12    30    31    1
    13    31    32    1
    14    32    33   ar
    15    32    34   ar
    16     2     3    1
    17     3     4    1
    18     4    16    1
    19    16    17   ar
    20    17    18   ar
    21    18    19   ar
    22    19    20   ar
    23     4     5    2
    24     5     6    1
    25     6     8    1
    26     8     9   ar
    27     9    10   ar
    28    10    11   ar
    29    11    12    1
    30    11    13   ar
    31    13    14   ar
    32    14    15    1
    33     6     1    1
    34    14     8   ar
    35    31    26    1
    36    20    16   ar
    37     3     7    1
@<TRIPOS>MOLECULE
*****
 34 37 0 0 0
SMALL
GASTEIGER

@<TRIPOS>ATOM
      1 C         141.2495  139.8163  164.3279 C.2     1  UNL1        0.1397
      2 C         141.3776  139.9365  162.8382 C.2     1  UNL1        0.1355
      3 N         141.1341  141.2564  162.1686 N.pl3   1  UNL1       -0.1998
      4 C         140.7626  142.4562  162.9885 C.2     1  UNL1        0.3442
      5 N         140.6345  142.3361  164.4782 N.2     1  UNL1       -0.0580
      6 C         140.8780  141.0161  165.1479 C.3     1  UNL1        0.2695
      7 H         141.2182  141.3352  161.1908 H       1  UNL1        0.2983
      8 C         140.7499  140.8960  166.6376 C.ar    1  UNL1        0.0415
      9 C         139.5221  140.2774  167.2373 C.ar    1  UNL1        0.0034
     10 C         139.3939  140.1572  168.7270 C.ar    1  UNL1        0.0295
     11 C         140.4937  140.6558  169.6170 C.ar    1  UNL1        0.1410
     12 F         140.3656  140.5357  171.1066 F       1  UNL1       -0.2041
     13 C         141.7215  141.2745  169.0173 C.ar    1  UNL1        0.0408
     14 C         141.8496  141.3946  167.5275 C.ar    1  UNL1        0.0603
     15 CL        143.0775  142.0132  166.9278 Cl      1  UNL1       -0.0824
     16 C         140.5191  143.7761  162.3188 C.ar    1  UNL1        0.1931
     17 N         139.9683  145.0085  162.9731 N.ar    1  UNL1       -0.2297
     18 C         139.8925  146.0895  161.9359 C.ar    1  UNL1        0.1067
     19 C         140.3963  145.5252  160.6406 C.ar    1  UNL1        0.0577
     20 S         140.7836  144.0955  160.8773 S.2     1  UNL1       -0.0586
     21 C         141.4930  138.4964  164.9976 C.2     1  UNL1        0.3448
     22 O         140.4069  137.4625  165.0346 O.2     1  UNL1       -0.2450
     23 C         144.0375  138.9796  165.2032 C.3     1  UNL1        0.2559
     24 O         142.8226  138.2103  165.6302 O.3     1  UNL1       -0.4414
     25 C         141.7492  138.7366  162.0182 C.3     1  UNL1        0.1407
     26 N         141.3854  138.6802  160.5641 N.3     1  UNL1       -0.2584
     27 C         142.4616  138.5633  159.5257 C.3     1  UNL1        0.1052
     28 C         142.0977  138.5068  158.0716 C.3     1  UNL1        0.1595
     29 O         140.6578  138.5672  157.6558 O.3     1  UNL1       -0.3505
     30 C         139.5816  138.6841  158.6942 C.3     1  UNL1        0.1637
     31 C         139.9454  138.7406  160.1483 C.3     1  UNL1        0.1247
     32 C         138.8692  138.8575  161.1867 C.2     1  UNL1        0.0673
     33 O         138.4903  137.6634  162.0118 O.co2   1  UNL1       -0.5477
     34 O         138.1720  140.1683  161.3999 O.co2   1  UNL1       -0.5477
@<TRIPOS>UNITY_ATOM_ATTR
33 1
charge -1
@<TRIPOS>BOND
     1    23    24    1
     2    24    21    1
     3    21    22    2
     4    21     1    1
     5     1     2    2
     6     2    25    1
     7    25    26    1
     8    26    27    1
     9    27    28    1
    10    28    29    1
    11    29    30    1
    12    30    31    1
    13    31    32    1
    14    32    33   ar
    15    32    34   ar
    16     2     3    1
    17     3     4    1
    18     4    16    1
    19    16    17   ar
    20    17    18   ar
    21    18    19   ar
    22    19    20   ar
    23     4     5    2
    24     5     6    1
    25     6     8    1
    26     8     9   ar
    27     9    10   ar
    28    10    11   ar
    29    11    12    1
    30    11    13   ar
    31    13    14   ar
    32    14    15    1
    33     6     1    1
    34    14     8   ar
    35    31    26    1
    36    20    16   ar
    37     3     7    1
@<TRIPOS>MOLECULE
*****
 34 37 0 0 0
SMALL
GASTEIGER

@<TRIPOS>ATOM
      1 C         139.3191  140.9355  160.8899 C.2     1  UNL1        0.1397
      2 C         139.3649  140.1926  159.5876 C.2     1  UNL1        0.1355
      3 N         138.9961  140.8909  158.3124 N.pl3   1  UNL1       -0.1998
      4 C         138.5814  142.3322  158.3394 C.2     1  UNL1        0.3442
      5 N         138.5356  143.0751  159.6417 N.2     1  UNL1       -0.0580
      6 C         138.9044  142.3767  160.9169 C.3     1  UNL1        0.2695
      7 H         139.0262  140.4033  157.4576 H       1  UNL1        0.2983
      8 C         138.8585  143.1197  162.2192 C.ar    1  UNL1        0.0415
      9 C         137.6267  143.0612  163.0731 C.ar    1  UNL1        0.0034
     10 C         137.5808  143.8041  164.3753 C.ar    1  UNL1        0.0295
     11 C         138.7668  144.6056  164.8238 C.ar    1  UNL1        0.1410
     12 F         138.7209  145.3485  166.1260 F       1  UNL1       -0.2041
     13 C         139.9986  144.6641  163.9699 C.ar    1  UNL1        0.0408
     14 C         140.0445  143.9211  162.6676 C.ar    1  UNL1        0.0603
     15 CL        141.2764  143.9797  161.8138 Cl      1  UNL1       -0.0824
     16 C         138.2126  143.0305  157.0641 C.ar    1  UNL1        0.1931
     17 N         138.9918  144.1286  156.4030 N.ar    1  UNL1       -0.2297
     18 C         138.2606  144.5302  155.1564 C.ar    1  UNL1        0.1067
     19 C         137.0295  143.6802  155.0470 C.ar    1  UNL1        0.0577
     20 S         136.9999  142.7534  156.2260 S.2     1  UNL1       -0.0586
     21 C         139.6879  140.2371  162.1651 C.2     1  UNL1        0.3448
     22 O         141.0987  140.2955  162.6713 O.2     1  UNL1       -0.2450
     23 C         138.7083  137.9834  163.0084 C.3     1  UNL1        0.2559
     24 O         138.6460  139.4803  162.9342 O.3     1  UNL1       -0.4414
     25 C         139.7796  138.7512  159.5606 C.3     1  UNL1        0.1407
     26 N         140.5630  138.2179  158.3979 N.3     1  UNL1       -0.2584
     27 C         139.8469  137.6872  157.1913 C.3     1  UNL1        0.1052
     28 C         140.6303  137.1538  156.0286 C.3     1  UNL1        0.1595
     29 O         142.1297  137.1512  156.0724 O.3     1  UNL1       -0.3505
     30 C         142.8457  137.6819  157.2789 C.3     1  UNL1        0.1637
     31 C         142.0624  138.2152  158.4416 C.3     1  UNL1        0.1247
     32 C         142.7784  138.7459  159.6481 C.2     1  UNL1        0.0673
     33 O         143.1409  140.1994  159.7261 O.co2   1  UNL1       -0.5477
     34 O         143.1319  137.8232  160.7767 O.co2   1  UNL1       -0.5477
@<TRIPOS>UNITY_ATOM_ATTR
33 1
charge -1
@<TRIPOS>BOND
     1    23    24    1
     2    24    21    1
     3    21    22    2
     4    21     1    1
     5     1     2    2
     6     2    25    1
     7    25    26    1
     8    26    27    1
     9    27    28    1
    10    28    29    1
    11    29    30    1
    12    30    31    1
    13    31    32    1
    14    32    33   ar
    15    32    34   ar
    16     2     3    1
    17     3     4    1
    18     4    16    1
    19    16    17   ar
    20    17    18   ar
    21    18    19   ar
    22    19    20   ar
    23     4     5    2
    24     5     6    1
    25     6     8    1
    26     8     9   ar
    27     9    10   ar
    28    10    11   ar
    29    11    12    1
    30    11    13   ar
    31    13    14   ar
    32    14    15    1
    33     6     1    1
    34    14     8   ar
    35    31    26    1
    36    20    16   ar
    37     3     7    1
@<TRIPOS>MOLECULE
*****
 34 37 0 0 0
SMALL
GASTEIGER

@<TRIPOS>ATOM
      1 C         140.8629  140.8900  161.5003 C.2     1  UNL1        0.1397
      2 C         140.3450  141.3074  160.1559 C.2     1  UNL1        0.1355
      3 N         140.7302  140.5332  158.9303 N.pl3   1  UNL1       -0.1998
      4 C         141.6334  139.3416  159.0490 C.2     1  UNL1        0.3442
      5 N         142.1513  138.9241  160.3934 N.2     1  UNL1       -0.0580
      6 C         141.7661  139.6983  161.6191 C.3     1  UNL1        0.2695
      7 H         140.3903  140.8072  158.0479 H       1  UNL1        0.2983
      8 C         142.2840  139.2808  162.9635 C.ar    1  UNL1        0.0415
      9 C         143.5908  139.8207  163.4645 C.ar    1  UNL1        0.0034
     10 C         144.1088  139.4032  164.8089 C.ar    1  UNL1        0.0295
     11 C         143.3200  138.4458  165.6523 C.ar    1  UNL1        0.1410
     12 F         143.8380  138.0284  166.9967 F       1  UNL1       -0.2041
     13 C         142.0133  137.9060  165.1513 C.ar    1  UNL1        0.0408
     14 C         141.4953  138.3235  163.8069 C.ar    1  UNL1        0.0603
     15 CL        140.1886  137.7836  163.3059 Cl      1  UNL1       -0.0824
     16 C         142.0187  138.5673  157.8234 C.ar    1  UNL1        0.1931
     17 N         143.4073  138.4146  157.2773 N.ar    1  UNL1       -0.2297
     18 C         143.3298  137.5628  156.0451 C.ar    1  UNL1        0.1067
     19 C         141.8932  137.1891  155.8296 C.ar    1  UNL1        0.0577
     20 S         141.0829  137.8099  156.9286 S.2     1  UNL1       -0.0586
     21 C         140.4776  141.6642  162.7259 C.2     1  UNL1        0.3448
     22 O         141.3385  142.7981  163.1982 O.2     1  UNL1       -0.2450
     23 C         139.2838  141.1087  164.9656 C.3     1  UNL1        0.2559
     24 O         139.2315  141.3045  163.4793 O.3     1  UNL1       -0.4414
     25 C         139.4417  142.4992  160.0371 C.3     1  UNL1        0.1407
     26 N         139.6011  143.4493  158.8874 N.3     1  UNL1       -0.2584
     27 C         138.9400  143.1545  157.5736 C.3     1  UNL1        0.1052
     28 C         139.0994  144.1047  156.4239 C.3     1  UNL1        0.1595
     29 O         139.9197  145.3497  156.5880 O.3     1  UNL1       -0.3505
     30 C         140.5808  145.6445  157.9019 C.3     1  UNL1        0.1637
     31 C         140.4215  144.6944  159.0515 C.3     1  UNL1        0.1247
     32 C         141.0825  144.9892  160.3653 C.2     1  UNL1        0.0673
     33 O         142.4702  144.4879  160.6359 O.co2   1  UNL1       -0.5477
     34 O         140.3560  145.7853  161.4085 O.co2   1  UNL1       -0.5477
@<TRIPOS>UNITY_ATOM_ATTR
33 1
charge -1
@<TRIPOS>BOND
     1    23    24    1
     2    24    21    1
     3    21    22    2
     4    21     1    1
     5     1     2    2
     6     2    25    1
     7    25    26    1
     8    26    27    1
     9    27    28    1
    10    28    29    1
    11    29    30    1
    12    30    31    1
    13    31    32    1
    14    32    33   ar
    15    32    34   ar
    16     2     3    1
    17     3     4    1
    18     4    16    1
    19    16    17   ar
    20    17    18   ar
    21    18    19   ar
    22    19    20   ar
    23     4     5    2
    24     5     6    1
    25     6     8    1
    26     8     9   ar
    27     9    10   ar
    28    10    11   ar
    29    11    12    1
    30    11    13   ar
    31    13    14   ar
    32    14    15    1
    33     6     1    1
    34    14     8   ar
    35    31    26    1
    36    20    16   ar
    37     3     7    1
@<TRIPOS>MOLECULE
*****
 34 37 0 0 0
SMALL
GASTEIGER

@<TRIPOS>ATOM
      1 C         142.1401  140.1542  164.5480 C.2     1  UNL1        0.1397
      2 C         142.0851  140.3577  163.0629 C.2     1  UNL1        0.1355
      3 N         141.5125  141.6248  162.5003 N.pl3   1  UNL1       -0.1998
      4 C         140.9949  142.6884  163.4226 C.2     1  UNL1        0.3442
      5 N         141.0499  142.4849  164.9077 N.2     1  UNL1       -0.0580
      6 C         141.6225  141.2178  165.4704 C.3     1  UNL1        0.2695
      7 H         141.4764  141.7583  161.5255 H       1  UNL1        0.2983
      8 C         141.6775  141.0143  166.9556 C.ar    1  UNL1        0.0415
      9 C         142.8948  141.4333  167.7254 C.ar    1  UNL1        0.0034
     10 C         142.9498  141.2298  169.2105 C.ar    1  UNL1        0.0295
     11 C         141.7875  140.6074  169.9258 C.ar    1  UNL1        0.1410
     12 F         141.8425  140.4039  171.4109 F       1  UNL1       -0.2041
     13 C         140.5702  140.1884  169.1560 C.ar    1  UNL1        0.0408
     14 C         140.5152  140.3919  167.6708 C.ar    1  UNL1        0.0603
     15 CL        139.2979  139.9729  166.9010 Cl      1  UNL1       -0.0824
     16 C         140.4224  143.9555  162.8600 C.ar    1  UNL1        0.1931
     17 N         141.1520  144.9498  162.0062 N.ar    1  UNL1       -0.2297
     18 C         140.2002  146.0596  161.6708 C.ar    1  UNL1        0.1067
     19 C         138.8823  145.7511  162.3173 C.ar    1  UNL1        0.0577
     20 S         139.0196  144.4507  163.0522 S.2     1  UNL1       -0.0586
     21 C         142.7126  138.8871  165.1107 C.2     1  UNL1        0.3448
     22 O         144.1361  138.8518  165.5822 O.2     1  UNL1       -0.2450
     23 C         140.4612  137.6696  164.6650 C.3     1  UNL1        0.2559
     24 O         141.8617  137.6552  165.2019 O.3     1  UNL1       -0.4414
     25 C         142.6026  139.2941  162.1405 C.3     1  UNL1        0.1407
     26 N         142.4920  139.4708  160.6551 N.3     1  UNL1       -0.2584
     27 C         143.7156  139.7757  159.8428 C.3     1  UNL1        0.1052
     28 C         143.6049  139.9524  158.3573 C.3     1  UNL1        0.1595
     29 O         142.2706  139.8242  157.6842 O.3     1  UNL1       -0.3505
     30 C         141.0470  139.5193  158.4964 C.3     1  UNL1        0.1637
     31 C         141.1576  139.3426  159.9818 C.3     1  UNL1        0.1247
     32 C         139.9340  139.0377  160.7941 C.2     1  UNL1        0.0673
     33 O         139.5938  137.6166  161.1332 O.co2   1  UNL1       -0.5477
     34 O         139.0506  140.1537  161.2673 O.co2   1  UNL1       -0.5477
@<TRIPOS>UNITY_ATOM_ATTR
33 1
charge -1
@<TRIPOS>BOND
     1    23    24    1
     2    24    21    1
     3    21    22    2
     4    21     1    1
     5     1     2    2
     6     2    25    1
     7    25    26    1
     8    26    27    1
     9    27    28    1
    10    28    29    1
    11    29    30    1
    12    30    31    1
    13    31    32    1
    14    32    33   ar
    15    32    34   ar
    16     2     3    1
    17     3     4    1
    18     4    16    1
    19    16    17   ar
    20    17    18   ar
    21    18    19   ar
    22    19    20   ar
    23     4     5    2
    24     5     6    1
    25     6     8    1
    26     8     9   ar
    27     9    10   ar
    28    10    11   ar
    29    11    12    1
    30    11    13   ar
    31    13    14   ar
    32    14    15    1
    33     6     1    1
    34    14     8   ar
    35    31    26    1
    36    20    16   ar
    37     3     7    1
@<TRIPOS>MOLECULE
*****
 34 37 0 0 0
SMALL
GASTEIGER

@<TRIPOS>ATOM
      1 C         140.6910  140.2110  161.1590 C.2     1  UNL1        0.1397
      2 C         140.1978  140.4592  159.7644 C.2     1  UNL1        0.1355
      3 N         140.8369  139.7524  158.6059 N.pl3   1  UNL1       -0.1998
      4 C         141.9692  138.7975  158.8421 C.2     1  UNL1        0.3442
      5 N         142.4625  138.5493  160.2368 N.2     1  UNL1       -0.0580
      6 C         141.8234  139.2560  161.3952 C.3     1  UNL1        0.2695
      7 H         140.5132  139.9153  157.6906 H       1  UNL1        0.2983
      8 C         142.3166  139.0078  162.7899 C.ar    1  UNL1        0.0415
      9 C         143.5201  139.7425  163.3017 C.ar    1  UNL1        0.0034
     10 C         144.0134  139.4943  164.6963 C.ar    1  UNL1        0.0295
     11 C         143.3032  138.5114  165.5793 C.ar    1  UNL1        0.1410
     12 F         143.7965  138.2632  166.9739 F       1  UNL1       -0.2041
     13 C         142.0997  137.7767  165.0675 C.ar    1  UNL1        0.0408
     14 C         141.6064  138.0250  163.6728 C.ar    1  UNL1        0.0603
     15 CL        140.4029  137.2903  163.1611 Cl      1  UNL1       -0.0824
     16 C         142.6084  138.0907  157.6837 C.ar    1  UNL1        0.1931
     17 N         142.8084  136.6096  157.5560 N.ar    1  UNL1       -0.2297
     18 C         143.4833  136.3444  156.2429 C.ar    1  UNL1        0.1067
     19 C         143.7004  137.6617  155.5590 C.ar    1  UNL1        0.0577
     20 S         143.1596  138.7409  156.4495 S.2     1  UNL1       -0.0586
     21 C         140.0519  140.9178  162.3175 C.2     1  UNL1        0.3448
     22 O         140.6511  142.1880  162.8442 O.2     1  UNL1       -0.2450
     23 C         137.5423  141.1503  162.9479 C.3     1  UNL1        0.2559
     24 O         138.8137  140.3543  162.9492 O.3     1  UNL1       -0.4414
     25 C         139.0654  141.4142  159.5281 C.3     1  UNL1        0.1407
     26 N         139.1179  142.3685  158.3721 N.3     1  UNL1       -0.2584
     27 C         139.8307  143.6806  158.5145 C.3     1  UNL1        0.1052
     28 C         139.8832  144.6350  157.3583 C.3     1  UNL1        0.1595
     29 O         139.2230  144.2772  156.0599 O.3     1  UNL1       -0.3505
     30 C         138.5102  142.9651  155.9175 C.3     1  UNL1        0.1637
     31 C         138.4577  142.0107  157.0736 C.3     1  UNL1        0.1247
     32 C         137.7449  140.6986  156.9312 C.2     1  UNL1        0.0673
     33 O         136.2526  140.6367  157.0710 O.co2   1  UNL1       -0.5477
     34 O         138.5242  139.4485  156.6490 O.co2   1  UNL1       -0.5477
@<TRIPOS>UNITY_ATOM_ATTR
33 1
charge -1
@<TRIPOS>BOND
     1    23    24    1
     2    24    21    1
     3    21    22    2
     4    21     1    1
     5     1     2    2
     6     2    25    1
     7    25    26    1
     8    26    27    1
     9    27    28    1
    10    28    29    1
    11    29    30    1
    12    30    31    1
    13    31    32    1
    14    32    33   ar
    15    32    34   ar
    16     2     3    1
    17     3     4    1
    18     4    16    1
    19    16    17   ar
    20    17    18   ar
    21    18    19   ar
    22    19    20   ar
    23     4     5    2
    24     5     6    1
    25     6     8    1
    26     8     9   ar
    27     9    10   ar
    28    10    11   ar
    29    11    12    1
    30    11    13   ar
    31    13    14   ar
    32    14    15    1
    33     6     1    1
    34    14     8   ar
    35    31    26    1
    36    20    16   ar
    37     3     7    1
