@<TRIPOS>MOLECULE
*****
 31 33 0 0 0
SMALL
GASTEIGER

@<TRIPOS>ATOM
      1 C         139.4913  137.9455  163.3589 C.ar    1  UNL1        0.1393
      2 C         140.9225  137.7557  162.9515 C.ar    1  UNL1        0.0370
      3 C         142.0236  138.0198  163.9352 C.ar    1  UNL1        0.0063
      4 C         141.6937  138.4737  165.3263 C.ar    1  UNL1        0.0392
      5 C         140.2627  138.6634  165.7337 C.ar    1  UNL1        0.0063
      6 C         139.1614  138.3993  164.7500 C.ar    1  UNL1        0.0370
      7 C         142.7948  138.7377  166.3100 C.2     1  UNL1        0.1961
      8 O         143.9794  137.8197  166.3741 O.2     1  UNL1       -0.2866
      9 C         142.7115  139.9199  167.2296 C.ar    1  UNL1        0.0460
     10 C         142.3269  139.7267  168.6665 C.ar    1  UNL1        0.0151
     11 C         142.2436  140.9087  169.5861 C.ar    1  UNL1        0.0578
     12 CL        141.8590  140.7155  171.0230 Cl      1  UNL1       -0.0822
     13 C         142.5448  142.2842  169.0688 C.ar    1  UNL1        0.0119
     14 C         142.9294  142.4774  167.6318 C.ar    1  UNL1        0.0077
     15 C         143.0127  141.2953  166.7122 C.ar    1  UNL1        0.0377
     16 BR        143.3973  141.4885  165.2753 Br      1  UNL1       -0.0489
     17 O         138.3902  137.6814  162.3752 O.3     1  UNL1       -0.4656
     18 C         137.6776  138.8280  161.7215 C.3     1  UNL1        0.2897
     19 N         138.3405  141.1012  162.7907 N.am    1  UNL1       -0.2791
     20 C         138.3473  140.1662  161.6178 C.2     1  UNL1        0.2707
     21 O         139.0237  140.5694  160.3411 O.2     1  UNL1       -0.2707
     22 H         137.8965  140.8366  163.6286 H       1  UNL1        0.1550
     23 C         141.1725  143.8618  162.4608 C.ar    1  UNL1        0.0970
     24 C         140.3496  145.1157  162.4795 C.ar    1  UNL1        0.0126
     25 C         138.8570  145.0316  162.6020 C.ar    1  UNL1        0.0021
     26 C         138.1873  143.6934  162.7057 C.ar    1  UNL1        0.0170
     27 C         139.0102  142.4395  162.6869 C.ar    1  UNL1        0.0789
     28 C         140.5028  142.5237  162.5645 C.ar    1  UNL1        0.1630
     29 F         141.3257  141.2696  162.5457 F       1  UNL1       -0.2022
     30 N         144.1578  144.0302  162.2158 N.1     1  UNL1       -0.1908
     31 C         142.6652  143.9460  162.3383 C.1     1  UNL1        0.1027
@<TRIPOS>BOND
     1    30    31    3
     2    31    23    1
     3    23    24   ar
     4    24    25   ar
     5    25    26   ar
     6    26    27   ar
     7    27    19    1
     8    19    20   am
     9    20    21    2
    10    20    18    1
    11    18    17    1
    12    17     1    1
    13     1     2   ar
    14     2     3   ar
    15     3     4   ar
    16     4     7    1
    17     7     8    2
    18     7     9    1
    19     9    10   ar
    20    10    11   ar
    21    11    12    1
    22    11    13   ar
    23    13    14   ar
    24    14    15   ar
    25    15    16    1
    26     4     5   ar
    27     5     6   ar
    28    27    28   ar
    29    28    29    1
    30    28    23   ar
    31     6     1   ar
    32    15     9   ar
    33    19    22    1
@<TRIPOS>MOLECULE
*****
 31 33 0 0 0
SMALL
GASTEIGER

@<TRIPOS>ATOM
      1 C         140.4787  145.1342  163.2447 C.ar    1  UNL1        0.1393
      2 C         141.9497  144.8757  163.3851 C.ar    1  UNL1        0.0370
      3 C         142.4426  143.8706  164.3834 C.ar    1  UNL1        0.0063
      4 C         141.4647  143.1239  165.2414 C.ar    1  UNL1        0.0392
      5 C         139.9938  143.3824  165.1011 C.ar    1  UNL1        0.0063
      6 C         139.5008  144.3876  164.1027 C.ar    1  UNL1        0.0370
      7 C         141.9576  142.1188  166.2397 C.2     1  UNL1        0.1961
      8 O         143.3524  141.5773  166.1328 O.2     1  UNL1       -0.2866
      9 C         141.0557  141.6551  167.3451 C.ar    1  UNL1        0.0460
     10 C         140.8779  142.4996  168.5720 C.ar    1  UNL1        0.0151
     11 C         139.9761  142.0359  169.6773 C.ar    1  UNL1        0.0578
     12 CL        139.7982  142.8804  170.9042 Cl      1  UNL1       -0.0822
     13 C         139.2521  140.7278  169.5558 C.ar    1  UNL1        0.0119
     14 C         139.4300  139.8833  168.3289 C.ar    1  UNL1        0.0077
     15 C         140.3319  140.3470  167.2235 C.ar    1  UNL1        0.0377
     16 BR        140.5097  139.5026  165.9966 Br      1  UNL1       -0.0489
     17 O         139.9858  146.1394  162.2464 O.3     1  UNL1       -0.4656
     18 C         139.9710  145.8002  160.7854 C.3     1  UNL1        0.2897
     19 N         138.9082  143.4428  160.5336 N.am    1  UNL1       -0.2791
     20 C         140.0728  144.3693  160.3465 C.2     1  UNL1        0.2707
     21 O         141.3393  143.8652  159.7206 O.2     1  UNL1       -0.2707
     22 H         138.0769  143.7737  160.9444 H       1  UNL1        0.1550
     23 C         139.6459  139.5439  160.5986 C.ar    1  UNL1        0.0970
     24 C         139.2136  139.1505  159.2172 C.ar    1  UNL1        0.0126
     25 C         138.6796  140.1879  158.2745 C.ar    1  UNL1        0.0021
     26 C         138.5778  141.6187  158.7133 C.ar    1  UNL1        0.0170
     27 C         139.0100  142.0120  160.0947 C.ar    1  UNL1        0.0789
     28 C         139.5440  140.9746  161.0374 C.ar    1  UNL1        0.1630
     29 F         139.9763  141.3680  162.4189 F       1  UNL1       -0.2022
     30 N         140.7140  137.4691  162.4839 N.1     1  UNL1       -0.1908
     31 C         140.1799  138.5065  161.5413 C.1     1  UNL1        0.1027
@<TRIPOS>BOND
     1    30    31    3
     2    31    23    1
     3    23    24   ar
     4    24    25   ar
     5    25    26   ar
     6    26    27   ar
     7    27    19    1
     8    19    20   am
     9    20    21    2
    10    20    18    1
    11    18    17    1
    12    17     1    1
    13     1     2   ar
    14     2     3   ar
    15     3     4   ar
    16     4     7    1
    17     7     8    2
    18     7     9    1
    19     9    10   ar
    20    10    11   ar
    21    11    12    1
    22    11    13   ar
    23    13    14   ar
    24    14    15   ar
    25    15    16    1
    26     4     5   ar
    27     5     6   ar
    28    27    28   ar
    29    28    29    1
    30    28    23   ar
    31     6     1   ar
    32    15     9   ar
    33    19    22    1
@<TRIPOS>MOLECULE
*****
 31 33 0 0 0
SMALL
GASTEIGER

@<TRIPOS>ATOM
      1 C         138.9393  144.3665  163.6855 C.ar    1  UNL1        0.1393
      2 C         137.9290  143.3049  163.3654 C.ar    1  UNL1        0.0370
      3 C         138.0014  141.9706  164.0468 C.ar    1  UNL1        0.0063
      4 C         139.0842  141.6978  165.0484 C.ar    1  UNL1        0.0392
      5 C         140.0945  142.7593  165.3685 C.ar    1  UNL1        0.0063
      6 C         140.0220  144.0937  164.6871 C.ar    1  UNL1        0.0370
      7 C         139.1567  140.3635  165.7298 C.2     1  UNL1        0.1961
      8 O         138.1438  139.3035  165.4130 O.2     1  UNL1       -0.2866
      9 C         140.2422  140.0892  166.7281 C.ar    1  UNL1        0.0460
     10 C         139.9932  140.3199  168.1892 C.ar    1  UNL1        0.0151
     11 C         141.0785  140.0456  169.1875 C.ar    1  UNL1        0.0578
     12 CL        140.8295  140.2763  170.6486 Cl      1  UNL1       -0.0822
     13 C         142.4131  139.5405  168.7247 C.ar    1  UNL1        0.0119
     14 C         142.6621  139.3098  167.2636 C.ar    1  UNL1        0.0077
     15 C         141.5766  139.5841  166.2653 C.ar    1  UNL1        0.0377
     16 BR        141.8256  139.3534  164.8043 Br      1  UNL1       -0.0489
     17 O         138.8668  145.7008  163.0041 O.3     1  UNL1       -0.4656
     18 C         139.7552  145.9932  161.8315 C.3     1  UNL1        0.2897
     19 N         141.8720  144.6458  161.1578 N.am    1  UNL1       -0.2791
     20 C         140.3907  144.8662  161.0725 C.2     1  UNL1        0.2707
     21 O         139.5450  143.9597  160.2281 O.2     1  UNL1       -0.2707
     22 H         142.4271  145.2407  161.7120 H       1  UNL1        0.1550
     23 C         143.4180  141.0866  160.3260 C.ar    1  UNL1        0.0970
     24 C         143.7785  141.2648  158.8810 C.ar    1  UNL1        0.0126
     25 C         143.5035  142.5701  158.1949 C.ar    1  UNL1        0.0021
     26 C         142.8680  143.6970  158.9538 C.ar    1  UNL1        0.0170
     27 C         142.5075  143.5188  160.3988 C.ar    1  UNL1        0.0789
     28 C         142.7825  142.2135  161.0849 C.ar    1  UNL1        0.1630
     29 F         142.4219  142.0353  162.5301 F       1  UNL1       -0.2022
     30 N         143.9679  138.4761  161.6982 N.1     1  UNL1       -0.1908
     31 C         143.6929  139.7813  161.0121 C.1     1  UNL1        0.1027
@<TRIPOS>BOND
     1    30    31    3
     2    31    23    1
     3    23    24   ar
     4    24    25   ar
     5    25    26   ar
     6    26    27   ar
     7    27    19    1
     8    19    20   am
     9    20    21    2
    10    20    18    1
    11    18    17    1
    12    17     1    1
    13     1     2   ar
    14     2     3   ar
    15     3     4   ar
    16     4     7    1
    17     7     8    2
    18     7     9    1
    19     9    10   ar
    20    10    11   ar
    21    11    12    1
    22    11    13   ar
    23    13    14   ar
    24    14    15   ar
    25    15    16    1
    26     4     5   ar
    27     5     6   ar
    28    27    28   ar
    29    28    29    1
    30    28    23   ar
    31     6     1   ar
    32    15     9   ar
    33    19    22    1
@<TRIPOS>MOLECULE
*****
 31 33 0 0 0
SMALL
GASTEIGER

@<TRIPOS>ATOM
      1 C         139.9954  137.5725  164.4359 C.ar    1  UNL1        0.1393
      2 C         141.3879  137.7757  164.9553 C.ar    1  UNL1        0.0370
      3 C         142.5025  138.1010  164.0057 C.ar    1  UNL1        0.0063
      4 C         142.2247  138.2231  162.5367 C.ar    1  UNL1        0.0392
      5 C         140.8323  138.0199  162.0173 C.ar    1  UNL1        0.0063
      6 C         139.7176  137.6946  162.9670 C.ar    1  UNL1        0.0370
      7 C         143.3393  138.5483  161.5871 C.2     1  UNL1        0.1961
      8 O         144.3745  137.5124  161.2626 O.2     1  UNL1       -0.2866
      9 C         143.4188  139.9096  160.9619 C.ar    1  UNL1        0.0460
     10 C         142.7508  140.1699  159.6443 C.ar    1  UNL1        0.0151
     11 C         142.8303  141.5310  159.0192 C.ar    1  UNL1        0.0578
     12 CL        142.1623  141.7914  157.7016 Cl      1  UNL1       -0.0822
     13 C         143.5778  142.6320  159.7115 C.ar    1  UNL1        0.0119
     14 C         144.2457  142.3716  161.0291 C.ar    1  UNL1        0.0077
     15 C         144.1663  141.0104  161.6543 C.ar    1  UNL1        0.0377
     16 BR        144.8342  140.7501  162.9719 Br      1  UNL1       -0.0489
     17 O         138.8807  137.2473  165.3855 O.3     1  UNL1       -0.4656
     18 C         138.1293  138.3524  166.0667 C.3     1  UNL1        0.2897
     19 N         138.3232  140.5756  164.7363 N.am    1  UNL1       -0.2791
     20 C         138.6191  139.7666  165.9642 C.2     1  UNL1        0.2707
     21 O         139.4047  140.3716  167.0897 O.2     1  UNL1       -0.2707
     22 H         137.8076  140.1785  163.9976 H       1  UNL1        0.1550
     23 C         140.7694  143.6806  164.3823 C.ar    1  UNL1        0.0970
     24 C         139.7924  144.8179  164.4289 C.ar    1  UNL1        0.0126
     25 C         138.3258  144.5411  164.5779 C.ar    1  UNL1        0.0021
     26 C         137.8360  143.1270  164.6803 C.ar    1  UNL1        0.0170
     27 C         138.8129  141.9898  164.6338 C.ar    1  UNL1        0.0789
     28 C         140.2796  142.2666  164.4848 C.ar    1  UNL1        0.1630
     29 F         141.2566  141.1292  164.4382 F       1  UNL1       -0.2022
     30 N         143.7028  144.2342  164.0843 N.1     1  UNL1       -0.1908
     31 C         142.2361  143.9574  164.2333 C.1     1  UNL1        0.1027
@<TRIPOS>BOND
     1    30    31    3
     2    31    23    1
     3    23    24   ar
     4    24    25   ar
     5    25    26   ar
     6    26    27   ar
     7    27    19    1
     8    19    20   am
     9    20    21    2
    10    20    18    1
    11    18    17    1
    12    17     1    1
    13     1     2   ar
    14     2     3   ar
    15     3     4   ar
    16     4     7    1
    17     7     8    2
    18     7     9    1
    19     9    10   ar
    20    10    11   ar
    21    11    12    1
    22    11    13   ar
    23    13    14   ar
    24    14    15   ar
    25    15    16    1
    26     4     5   ar
    27     5     6   ar
    28    27    28   ar
    29    28    29    1
    30    28    23   ar
    31     6     1   ar
    32    15     9   ar
    33    19    22    1
@<TRIPOS>MOLECULE
*****
 31 33 0 0 0
SMALL
GASTEIGER

@<TRIPOS>ATOM
      1 C         140.6557  144.9206  163.4221 C.ar    1  UNL1        0.1393
      2 C         140.1046  143.5815  163.8136 C.ar    1  UNL1        0.0370
      3 C         141.0030  142.5532  164.4345 C.ar    1  UNL1        0.0063
      4 C         142.4524  142.8639  164.6639 C.ar    1  UNL1        0.0392
      5 C         143.0035  144.2029  164.2724 C.ar    1  UNL1        0.0063
      6 C         142.1051  145.2313  163.6515 C.ar    1  UNL1        0.0370
      7 C         143.3508  141.8356  165.2848 C.2     1  UNL1        0.1961
      8 O         144.4840  141.2536  164.4930 O.2     1  UNL1       -0.2866
      9 C         143.1159  141.3893  166.6975 C.ar    1  UNL1        0.0460
     10 C         143.2632  142.3656  167.8267 C.ar    1  UNL1        0.0151
     11 C         143.0284  141.9194  169.2394 C.ar    1  UNL1        0.0578
     12 CL        143.1757  142.8957  170.3686 Cl      1  UNL1       -0.0822
     13 C         142.6461  140.4969  169.5229 C.ar    1  UNL1        0.0119
     14 C         142.4988  139.5206  168.3937 C.ar    1  UNL1        0.0077
     15 C         142.7337  139.9669  166.9810 C.ar    1  UNL1        0.0377
     16 BR        142.5863  138.9906  165.8517 Br      1  UNL1       -0.0489
     17 O         139.7573  145.9488  162.8012 O.3     1  UNL1       -0.4656
     18 C         139.7932  146.1794  161.3195 C.3     1  UNL1        0.2897
     19 N         141.7748  145.1299  160.0074 N.am    1  UNL1       -0.2791
     20 C         140.3293  145.1158  160.4077 C.2     1  UNL1        0.2707
     21 O         139.4198  144.0382  159.8962 O.2     1  UNL1       -0.2707
     22 H         142.3717  145.8372  160.3431 H       1  UNL1        0.1550
     23 C         143.2358  141.6647  158.7393 C.ar    1  UNL1        0.0970
     24 C         143.3831  141.9391  157.2720 C.ar    1  UNL1        0.0126
     25 C         142.9943  143.2771  156.7165 C.ar    1  UNL1        0.0021
     26 C         142.4582  144.3407  157.6282 C.ar    1  UNL1        0.0170
     27 C         142.3109  144.0663  159.0955 C.ar    1  UNL1        0.0789
     28 C         142.6997  142.7283  159.6510 C.ar    1  UNL1        0.1630
     29 F         142.5523  142.4539  161.1184 F       1  UNL1       -0.2022
     30 N         144.0133  138.9887  159.8503 N.1     1  UNL1       -0.1908
     31 C         143.6246  140.3267  159.2948 C.1     1  UNL1        0.1027
@<TRIPOS>BOND
     1    30    31    3
     2    31    23    1
     3    23    24   ar
     4    24    25   ar
     5    25    26   ar
     6    26    27   ar
     7    27    19    1
     8    19    20   am
     9    20    21    2
    10    20    18    1
    11    18    17    1
    12    17     1    1
    13     1     2   ar
    14     2     3   ar
    15     3     4   ar
    16     4     7    1
    17     7     8    2
    18     7     9    1
    19     9    10   ar
    20    10    11   ar
    21    11    12    1
    22    11    13   ar
    23    13    14   ar
    24    14    15   ar
    25    15    16    1
    26     4     5   ar
    27     5     6   ar
    28    27    28   ar
    29    28    29    1
    30    28    23   ar
    31     6     1   ar
    32    15     9   ar
    33    19    22    1
@<TRIPOS>MOLECULE
*****
 31 33 0 0 0
SMALL
GASTEIGER

@<TRIPOS>ATOM
      1 C         140.6988  145.1611  163.1672 C.ar    1  UNL1        0.1393
      2 C         142.1077  144.6582  163.2784 C.ar    1  UNL1        0.0370
      3 C         142.4456  143.5875  164.2730 C.ar    1  UNL1        0.0063
      4 C         141.3747  143.0196  165.1566 C.ar    1  UNL1        0.0392
      5 C         139.9659  143.5224  165.0455 C.ar    1  UNL1        0.0063
      6 C         139.6279  144.5932  164.0508 C.ar    1  UNL1        0.0370
      7 C         141.7126  141.9489  166.1512 C.2     1  UNL1        0.1961
      8 O         143.0984  141.8629  166.7189 O.2     1  UNL1       -0.2866
      9 C         140.6648  140.9642  166.5783 C.ar    1  UNL1        0.0460
     10 C         140.2074  139.8967  165.6288 C.ar    1  UNL1        0.0151
     11 C         139.1596  138.9120  166.0558 C.ar    1  UNL1        0.0578
     12 CL        138.7022  137.8446  165.1064 Cl      1  UNL1       -0.0822
     13 C         138.5691  138.9947  167.4322 C.ar    1  UNL1        0.0119
     14 C         139.0264  140.0621  168.3817 C.ar    1  UNL1        0.0077
     15 C         140.0743  141.0469  167.9546 C.ar    1  UNL1        0.0377
     16 BR        140.5316  142.1143  168.9040 Br      1  UNL1       -0.0489
     17 O         140.3609  146.2318  162.1726 O.3     1  UNL1       -0.4656
     18 C         140.0009  145.8607  160.7645 C.3     1  UNL1        0.2897
     19 N         138.9284  143.5066  160.5234 N.am    1  UNL1       -0.2791
     20 C         140.0917  144.4313  160.3190 C.2     1  UNL1        0.2707
     21 O         141.3458  143.9265  159.6691 O.2     1  UNL1       -0.2707
     22 H         138.1053  143.8380  160.9499 H       1  UNL1        0.1550
     23 C         139.6925  139.6123  160.5482 C.ar    1  UNL1        0.0970
     24 C         139.2009  139.2183  159.1870 C.ar    1  UNL1        0.0126
     25 C         138.6184  140.2537  158.2712 C.ar    1  UNL1        0.0021
     26 C         138.5276  141.6832  158.7166 C.ar    1  UNL1        0.0170
     27 C         139.0192  142.0772  160.0779 C.ar    1  UNL1        0.0789
     28 C         139.6017  141.0417  160.9937 C.ar    1  UNL1        0.1630
     29 F         140.0933  141.4358  162.3550 F       1  UNL1       -0.2022
     30 N         140.8574  137.5415  162.3798 N.1     1  UNL1       -0.1908
     31 C         140.2750  138.5769  161.4640 C.1     1  UNL1        0.1027
@<TRIPOS>BOND
     1    30    31    3
     2    31    23    1
     3    23    24   ar
     4    24    25   ar
     5    25    26   ar
     6    26    27   ar
     7    27    19    1
     8    19    20   am
     9    20    21    2
    10    20    18    1
    11    18    17    1
    12    17     1    1
    13     1     2   ar
    14     2     3   ar
    15     3     4   ar
    16     4     7    1
    17     7     8    2
    18     7     9    1
    19     9    10   ar
    20    10    11   ar
    21    11    12    1
    22    11    13   ar
    23    13    14   ar
    24    14    15   ar
    25    15    16    1
    26     4     5   ar
    27     5     6   ar
    28    27    28   ar
    29    28    29    1
    30    28    23   ar
    31     6     1   ar
    32    15     9   ar
    33    19    22    1
@<TRIPOS>MOLECULE
*****
 31 33 0 0 0
SMALL
GASTEIGER

@<TRIPOS>ATOM
      1 C         138.7569  144.0893  163.6627 C.ar    1  UNL1        0.1393
      2 C         139.7151  143.9711  164.8107 C.ar    1  UNL1        0.0370
      3 C         139.7939  142.6939  165.5934 C.ar    1  UNL1        0.0063
      4 C         138.9145  141.5349  165.2281 C.ar    1  UNL1        0.0392
      5 C         137.9563  141.6531  164.0802 C.ar    1  UNL1        0.0063
      6 C         137.8775  142.9303  163.2974 C.ar    1  UNL1        0.0370
      7 C         138.9933  140.2578  166.0108 C.2     1  UNL1        0.1961
      8 O         137.9949  139.1654  165.7662 O.2     1  UNL1       -0.2866
      9 C         140.0706  140.0730  167.0382 C.ar    1  UNL1        0.0460
     10 C         139.7817  140.3441  168.4849 C.ar    1  UNL1        0.0151
     11 C         140.8589  140.1593  169.5123 C.ar    1  UNL1        0.0578
     12 CL        140.5700  140.4303  170.9590 Cl      1  UNL1       -0.0822
     13 C         142.2251  139.7034  169.0929 C.ar    1  UNL1        0.0119
     14 C         142.5140  139.4323  167.6461 C.ar    1  UNL1        0.0077
     15 C         141.4367  139.6171  166.6188 C.ar    1  UNL1        0.0377
     16 BR        141.7256  139.3461  165.1720 Br      1  UNL1       -0.0489
     17 O         138.6781  145.3664  162.8800 O.3     1  UNL1       -0.4656
     18 C         139.8616  145.8333  162.0855 C.3     1  UNL1        0.2897
     19 N         141.7370  145.1300  160.4307 N.am    1  UNL1       -0.2791
     20 C         140.3074  145.0607  160.8795 C.2     1  UNL1        0.2707
     21 O         139.3236  144.2187  160.1224 O.2     1  UNL1       -0.2707
     22 H         142.3827  145.6826  160.9276 H       1  UNL1        0.1550
     23 C         142.5023  144.1894  156.6518 C.ar    1  UNL1        0.0970
     24 C         143.0744  142.8122  156.8128 C.ar    1  UNL1        0.0126
     25 C         143.2008  142.2076  158.1797 C.ar    1  UNL1        0.0021
     26 C         142.7550  142.9802  159.3856 C.ar    1  UNL1        0.0170
     27 C         142.1828  144.3574  159.2247 C.ar    1  UNL1        0.0789
     28 C         142.0565  144.9620  157.8577 C.ar    1  UNL1        0.1630
     29 F         141.4843  146.3393  157.6968 F       1  UNL1       -0.2022
     30 N         142.2496  145.3987  153.9180 N.1     1  UNL1       -0.1908
     31 C         142.3759  144.7940  155.2849 C.1     1  UNL1        0.1027
@<TRIPOS>BOND
     1    30    31    3
     2    31    23    1
     3    23    24   ar
     4    24    25   ar
     5    25    26   ar
     6    26    27   ar
     7    27    19    1
     8    19    20   am
     9    20    21    2
    10    20    18    1
    11    18    17    1
    12    17     1    1
    13     1     2   ar
    14     2     3   ar
    15     3     4   ar
    16     4     7    1
    17     7     8    2
    18     7     9    1
    19     9    10   ar
    20    10    11   ar
    21    11    12    1
    22    11    13   ar
    23    13    14   ar
    24    14    15   ar
    25    15    16    1
    26     4     5   ar
    27     5     6   ar
    28    27    28   ar
    29    28    29    1
    30    28    23   ar
    31     6     1   ar
    32    15     9   ar
    33    19    22    1
@<TRIPOS>MOLECULE
*****
 31 33 0 0 0
SMALL
GASTEIGER

@<TRIPOS>ATOM
      1 C         139.2846  144.9577  163.1378 C.ar    1  UNL1        0.1393
      2 C         138.2324  143.9866  163.5849 C.ar    1  UNL1        0.0370
      3 C         138.5670  142.9317  164.5973 C.ar    1  UNL1        0.0063
      4 C         139.9539  142.8477  165.1626 C.ar    1  UNL1        0.0392
      5 C         141.0061  143.8188  164.7155 C.ar    1  UNL1        0.0063
      6 C         140.6714  144.8738  163.7031 C.ar    1  UNL1        0.0370
      7 C         140.2886  141.7927  166.1750 C.2     1  UNL1        0.1961
      8 O         139.9746  142.0177  167.6244 O.2     1  UNL1       -0.2866
      9 C         140.9373  140.5128  165.7380 C.ar    1  UNL1        0.0460
     10 C         142.4191  140.4625  165.5106 C.ar    1  UNL1        0.0151
     11 C         143.0678  139.1826  165.0736 C.ar    1  UNL1        0.0578
     12 CL        144.5497  139.1323  164.8463 Cl      1  UNL1       -0.0822
     13 C         142.2347  137.9529  164.8640 C.ar    1  UNL1        0.0119
     14 C         140.7529  138.0032  165.0913 C.ar    1  UNL1        0.0077
     15 C         140.1042  139.2832  165.5283 C.ar    1  UNL1        0.0377
     16 BR        138.6224  139.3335  165.7556 Br      1  UNL1       -0.0489
     17 O         138.9499  146.0127  162.1254 O.3     1  UNL1       -0.4656
     18 C         139.8126  146.1871  160.9108 C.3     1  UNL1        0.2897
     19 N         141.9439  144.8294  160.3073 N.am    1  UNL1       -0.2791
     20 C         140.4534  144.9927  160.2681 C.2     1  UNL1        0.2707
     21 O         139.6035  143.9617  159.5864 O.2     1  UNL1       -0.2707
     22 H         142.5017  145.5061  160.7547 H       1  UNL1        0.1550
     23 C         143.4749  141.1996  159.8268 C.ar    1  UNL1        0.0970
     24 C         143.8662  141.2463  158.3795 C.ar    1  UNL1        0.0126
     25 C         143.6167  142.4873  157.5748 C.ar    1  UNL1        0.0021
     26 C         142.9760  143.6817  158.2173 C.ar    1  UNL1        0.0170
     27 C         142.5847  143.6350  159.6646 C.ar    1  UNL1        0.0789
     28 C         142.8342  142.3940  160.4694 C.ar    1  UNL1        0.1630
     29 F         142.4429  142.3473  161.9167 F       1  UNL1       -0.2022
     30 N         143.9739  138.7175  161.4363 N.1     1  UNL1       -0.1908
     31 C         143.7244  139.9586  160.6315 C.1     1  UNL1        0.1027
@<TRIPOS>BOND
     1    30    31    3
     2    31    23    1
     3    23    24   ar
     4    24    25   ar
     5    25    26   ar
     6    26    27   ar
     7    27    19    1
     8    19    20   am
     9    20    21    2
    10    20    18    1
    11    18    17    1
    12    17     1    1
    13     1     2   ar
    14     2     3   ar
    15     3     4   ar
    16     4     7    1
    17     7     8    2
    18     7     9    1
    19     9    10   ar
    20    10    11   ar
    21    11    12    1
    22    11    13   ar
    23    13    14   ar
    24    14    15   ar
    25    15    16    1
    26     4     5   ar
    27     5     6   ar
    28    27    28   ar
    29    28    29    1
    30    28    23   ar
    31     6     1   ar
    32    15     9   ar
    33    19    22    1
@<TRIPOS>MOLECULE
*****
 31 33 0 0 0
SMALL
GASTEIGER

@<TRIPOS>ATOM
      1 C         139.6695  145.3550  162.5950 C.ar    1  UNL1        0.1393
      2 C         141.0536  145.1677  163.1423 C.ar    1  UNL1        0.0370
      3 C         141.2780  144.2710  164.3235 C.ar    1  UNL1        0.0063
      4 C         140.1185  143.5614  164.9575 C.ar    1  UNL1        0.0392
      5 C         138.7345  143.7486  164.4103 C.ar    1  UNL1        0.0063
      6 C         138.5100  144.6454  163.2290 C.ar    1  UNL1        0.0370
      7 C         140.3429  142.6646  166.1388 C.2     1  UNL1        0.1961
      8 O         140.1817  143.2021  167.5299 O.2     1  UNL1       -0.2866
      9 C         140.7286  141.2302  165.9290 C.ar    1  UNL1        0.0460
     10 C         139.6724  140.2034  165.6458 C.ar    1  UNL1        0.0151
     11 C         140.0580  138.7691  165.4360 C.ar    1  UNL1        0.0578
     12 CL        139.0019  137.7422  165.1528 Cl      1  UNL1       -0.0822
     13 C         141.4998  138.3616  165.5094 C.ar    1  UNL1        0.0119
     14 C         142.5559  139.3884  165.7926 C.ar    1  UNL1        0.0077
     15 C         142.1703  140.8228  166.0024 C.ar    1  UNL1        0.0377
     16 BR        143.2264  141.8496  166.2856 Br      1  UNL1       -0.0489
     17 O         139.4451  146.2518  161.4138 O.3     1  UNL1       -0.4656
     18 C         140.0205  145.8892  160.0768 C.3     1  UNL1        0.2897
     19 N         138.9808  143.5277  159.7724 N.am    1  UNL1       -0.2791
     20 C         140.1626  144.4475  159.6875 C.2     1  UNL1        0.2707
     21 O         141.4866  143.9257  159.2133 O.2     1  UNL1       -0.2707
     22 H         138.1119  143.8702  160.0837 H       1  UNL1        0.1550
     23 C         139.7284  139.6370  160.0039 C.ar    1  UNL1        0.0970
     24 C         139.4071  139.2029  158.6045 C.ar    1  UNL1        0.0126
     25 C         138.9437  140.2103  157.5944 C.ar    1  UNL1        0.0021
     26 C         138.8016  141.6519  157.9837 C.ar    1  UNL1        0.0170
     27 C         139.1229  142.0860  159.3831 C.ar    1  UNL1        0.0789
     28 C         139.5863  141.0786  160.3931 C.ar    1  UNL1        0.1630
     29 F         139.9077  141.5128  161.7926 F       1  UNL1       -0.2022
     30 N         140.6553  137.6221  162.0240 N.1     1  UNL1       -0.1908
     31 C         140.1919  138.6295  161.0139 C.1     1  UNL1        0.1027
@<TRIPOS>BOND
     1    30    31    3
     2    31    23    1
     3    23    24   ar
     4    24    25   ar
     5    25    26   ar
     6    26    27   ar
     7    27    19    1
     8    19    20   am
     9    20    21    2
    10    20    18    1
    11    18    17    1
    12    17     1    1
    13     1     2   ar
    14     2     3   ar
    15     3     4   ar
    16     4     7    1
    17     7     8    2
    18     7     9    1
    19     9    10   ar
    20    10    11   ar
    21    11    12    1
    22    11    13   ar
    23    13    14   ar
    24    14    15   ar
    25    15    16    1
    26     4     5   ar
    27     5     6   ar
    28    27    28   ar
    29    28    29    1
    30    28    23   ar
    31     6     1   ar
    32    15     9   ar
    33    19    22    1
