@<TRIPOS>MOLECULE
*****
 49 54 0 0 0
SMALL
GASTEIGER

@<TRIPOS>ATOM
      1 N         142.6476  140.7982  156.4137 N.am    1  UNL1       -0.2964
      2 C         143.4627  140.5963  157.6566 C.2     1  UNL1        0.2461
      3 O         144.8558  140.0488  157.5592 O.2     1  UNL1       -0.2701
      4 H         141.7333  141.1576  156.4777 H       1  UNL1        0.1501
      5 C         142.8847  140.9420  158.9970 C.ar    1  UNL1        0.0534
      6 C         141.6353  141.7673  159.0848 C.ar    1  UNL1        0.0060
      7 C         141.0574  142.1129  160.4251 C.ar    1  UNL1        0.0173
      8 C         141.7289  141.6331  161.6777 C.ar    1  UNL1        0.0595
      9 C         142.9783  140.8079  161.5899 C.ar    1  UNL1        0.0134
     10 C         143.5563  140.4623  160.2496 C.ar    1  UNL1        0.0057
     11 C         143.4158  140.4792  162.9865 C.ar    1  UNL1       -0.0032
     12 C         144.6208  139.6704  163.3657 C.3     1  UNL1        0.0326
     13 C         142.4367  141.1014  163.9375 C.ar    1  UNL1        0.0737
     14 N         141.3941  141.8146  163.1286 N.ar    1  UNL1       -0.3281
     15 C         142.4907  141.0239  165.4346 C.ar    1  UNL1        0.0969
     16 C         142.9485  142.2099  166.2309 C.ar    1  UNL1        0.0229
     17 C         143.0026  142.1325  167.7279 C.ar    1  UNL1        0.0328
     18 C         142.5989  140.8692  168.4286 C.ar    1  UNL1        0.1592
     19 F         142.6529  140.7917  169.9256 F       1  UNL1       -0.2025
     20 C         142.1411  139.6832  167.6323 C.ar    1  UNL1        0.1284
     21 N         142.0871  139.7606  166.1353 N.ar    1  UNL1       -0.2400
     22 C         140.2225  142.5756  163.6746 C.3     1  UNL1        0.0855
     23 C         138.8783  141.9166  163.7690 C.3     1  UNL1        0.0226
     24 C         137.7067  142.6777  164.3151 C.3     1  UNL1        0.0019
     25 C         137.8793  144.0976  164.7667 C.3     1  UNL1        0.0001
     26 C         139.2235  144.7566  164.6723 C.3     1  UNL1        0.0019
     27 C         140.3951  143.9955  164.1263 C.3     1  UNL1        0.0226
     28 C         143.2256  140.4526  155.0734 C.3     1  UNL1        0.1261
     29 C         143.7556  141.8497  154.9417 C.3     1  UNL1        0.0270
     30 C         144.3335  141.5041  153.6014 C.3     1  UNL1        0.0043
     31 C         143.8036  140.1071  153.7330 C.3     1  UNL1        0.0270
     32 N         143.5637  137.8870  154.8432 N.am    1  UNL1       -0.2680
     33 C         142.6957  139.0556  155.2050 C.2     1  UNL1        0.2430
     34 O         141.2977  138.8271  155.6986 O.2     1  UNL1       -0.2730
     35 H         144.4812  138.0369  154.5193 H       1  UNL1        0.1563
     36 C         142.7828  134.2987  156.3482 C.ar    1  UNL1        0.2258
     37 N         143.3128  135.6958  156.2165 N.ar    1  UNL1       -0.1966
     38 C         143.0337  136.4898  154.9749 C.ar    1  UNL1        0.1373
     39 C         142.2246  135.8869  153.8650 C.ar    1  UNL1        0.0347
     40 C         141.6946  134.4898  153.9967 C.ar    1  UNL1        0.0075
     41 C         141.9737  133.6957  155.2383 C.ar    1  UNL1        0.0534
     42 C         141.4438  132.2987  155.3700 C.2     1  UNL1        0.0058
     43 C         142.3565  131.1272  155.1588 C.2     1  UNL1        0.0152
     44 C         141.8266  129.7302  155.2905 C.2     1  UNL1        0.0729
     45 O         140.6635  129.2871  154.4532 O.co2   1  UNL1       -0.5446
     46 O         142.4596  128.7762  156.2596 O.co2   1  UNL1       -0.5446
     47 O         143.0620  133.5046  157.5898 O.3     1  UNL1       -0.4602
     48 C         144.9429  131.7379  157.8912 C.3     1  UNL1        0.0512
     49 C         144.4748  133.1614  157.9587 C.3     1  UNL1        0.2072
@<TRIPOS>UNITY_ATOM_ATTR
45 1
charge -1
@<TRIPOS>BOND
     1    48    49    1
     2    49    47    1
     3    47    36    1
     4    36    37   ar
     5    37    38   ar
     6    38    32    1
     7    32    33   am
     8    33    34    2
     9    33    28    1
    10    28     1    1
    11     1     2   am
    12     2     3    2
    13     2     5    1
    14     5     6   ar
    15     6     7   ar
    16     7     8   ar
    17     8     9   ar
    18     9    10   ar
    19     9    11   ar
    20    11    12    1
    21    11    13   ar
    22    13    15    1
    23    15    16   ar
    24    16    17   ar
    25    17    18   ar
    26    18    19    1
    27    18    20   ar
    28    20    21   ar
    29    13    14   ar
    30    14    22    1
    31    22    23    1
    32    23    24    1
    33    24    25    1
    34    25    26    1
    35    26    27    1
    36    28    29    1
    37    29    30    1
    38    30    31    1
    39    38    39   ar
    40    39    40   ar
    41    40    41   ar
    42    41    42    1
    43    42    43    2
    44    43    44    1
    45    44    45   ar
    46    44    46   ar
    47    41    36   ar
    48    31    28    1
    49    10     5   ar
    50    21    15   ar
    51    27    22    1
    52    14     8   ar
    53    32    35    1
    54     1     4    1
@<TRIPOS>MOLECULE
*****
 49 54 0 0 0
SMALL
GASTEIGER

@<TRIPOS>ATOM
      1 N         142.7731  140.2314  157.1755 N.am    1  UNL1       -0.2964
      2 C         143.6658  140.3379  158.3762 C.2     1  UNL1        0.2461
      3 O         145.1308  140.6076  158.2001 O.2     1  UNL1       -0.2701
      4 H         141.8116  140.0544  157.2911 H       1  UNL1        0.1501
      5 C         143.0934  140.1747  159.7532 C.ar    1  UNL1        0.0534
      6 C         141.7905  139.4563  159.9435 C.ar    1  UNL1        0.0060
      7 C         141.2183  139.2932  161.3204 C.ar    1  UNL1        0.0173
      8 C         141.9489  139.8485  162.5069 C.ar    1  UNL1        0.0595
      9 C         143.2518  140.5669  162.3166 C.ar    1  UNL1        0.0134
     10 C         143.8241  140.7300  160.9397 C.ar    1  UNL1        0.0057
     11 C         143.7414  141.0042  163.6653 C.ar    1  UNL1       -0.0032
     12 C         145.0088  141.7574  163.9416 C.3     1  UNL1        0.0326
     13 C         142.7410  140.5560  164.6892 C.ar    1  UNL1        0.0737
     14 N         141.6332  139.8418  163.9734 N.ar    1  UNL1       -0.3281
     15 C         142.8325  140.7824  166.1693 C.ar    1  UNL1        0.0969
     16 C         143.0314  142.1693  166.7049 C.ar    1  UNL1        0.0229
     17 C         143.1229  142.3958  168.1849 C.ar    1  UNL1        0.0328
     18 C         143.0154  141.2353  169.1292 C.ar    1  UNL1        0.1592
     19 F         143.1068  141.4617  170.6092 F       1  UNL1       -0.2025
     20 C         142.8164  139.8484  168.5935 C.ar    1  UNL1        0.1284
     21 N         142.7249  139.6220  167.1136 N.ar    1  UNL1       -0.2400
     22 C         140.4223  139.2285  164.6117 C.3     1  UNL1        0.0855
     23 C         139.3862  140.1049  165.2508 C.3     1  UNL1        0.0226
     24 C         138.1753  139.4916  165.8891 C.3     1  UNL1        0.0019
     25 C         138.0005  138.0018  165.8884 C.3     1  UNL1        0.0001
     26 C         139.0365  137.1253  165.2494 C.3     1  UNL1        0.0019
     27 C         140.2474  137.7387  164.6110 C.3     1  UNL1        0.0226
     28 C         143.3455  140.3946  155.7986 C.3     1  UNL1        0.1261
     29 C         143.2922  141.8856  155.9532 C.3     1  UNL1        0.0270
     30 C         143.8645  142.0488  154.5763 C.3     1  UNL1        0.0043
     31 C         143.9178  140.5578  154.4217 C.3     1  UNL1        0.0270
     32 N         142.1283  138.1179  155.5069 N.am    1  UNL1       -0.2680
     33 C         143.3987  138.9035  155.6439 C.2     1  UNL1        0.2430
     34 O         144.7224  138.1981  155.6264 O.2     1  UNL1       -0.2730
     35 H         141.2595  138.5808  155.5184 H       1  UNL1        0.1563
     36 C         142.5975  134.2727  156.3697 C.ar    1  UNL1        0.2258
     37 N         142.5442  135.7637  156.5243 N.ar    1  UNL1       -0.1966
     38 C         142.1816  136.6268  155.3522 C.ar    1  UNL1        0.1373
     39 C         141.8722  135.9988  154.0257 C.ar    1  UNL1        0.0347
     40 C         141.9255  134.5077  153.8710 C.ar    1  UNL1        0.0075
     41 C         142.2882  133.6446  155.0431 C.ar    1  UNL1        0.0534
     42 C         142.3415  132.1536  154.8885 C.2     1  UNL1        0.0058
     43 C         143.6093  131.4912  154.4371 C.2     1  UNL1        0.0152
     44 C         143.6626  130.0002  154.2825 C.2     1  UNL1        0.0729
     45 O         142.4200  129.1816  154.4721 O.co2   1  UNL1       -0.5446
     46 O         144.9585  129.3276  153.9384 O.co2   1  UNL1       -0.5446
     47 O         142.9602  133.4096  157.5417 O.3     1  UNL1       -0.4602
     48 C         145.1478  132.0274  157.7739 C.3     1  UNL1        0.0512
     49 C         144.3902  133.3052  157.9822 C.3     1  UNL1        0.2072
@<TRIPOS>UNITY_ATOM_ATTR
45 1
charge -1
@<TRIPOS>BOND
     1    48    49    1
     2    49    47    1
     3    47    36    1
     4    36    37   ar
     5    37    38   ar
     6    38    32    1
     7    32    33   am
     8    33    34    2
     9    33    28    1
    10    28     1    1
    11     1     2   am
    12     2     3    2
    13     2     5    1
    14     5     6   ar
    15     6     7   ar
    16     7     8   ar
    17     8     9   ar
    18     9    10   ar
    19     9    11   ar
    20    11    12    1
    21    11    13   ar
    22    13    15    1
    23    15    16   ar
    24    16    17   ar
    25    17    18   ar
    26    18    19    1
    27    18    20   ar
    28    20    21   ar
    29    13    14   ar
    30    14    22    1
    31    22    23    1
    32    23    24    1
    33    24    25    1
    34    25    26    1
    35    26    27    1
    36    28    29    1
    37    29    30    1
    38    30    31    1
    39    38    39   ar
    40    39    40   ar
    41    40    41   ar
    42    41    42    1
    43    42    43    2
    44    43    44    1
    45    44    45   ar
    46    44    46   ar
    47    41    36   ar
    48    31    28    1
    49    10     5   ar
    50    21    15   ar
    51    27    22    1
    52    14     8   ar
    53    32    35    1
    54     1     4    1
@<TRIPOS>MOLECULE
*****
 49 54 0 0 0
SMALL
GASTEIGER

@<TRIPOS>ATOM
      1 N         144.3875  139.5505  157.0529 N.am    1  UNL1       -0.2964
      2 C         143.2895  140.4417  157.5528 C.2     1  UNL1        0.2461
      3 O         142.5370  141.3153  156.5933 O.2     1  UNL1       -0.2701
      4 H         144.8814  138.9772  157.6827 H       1  UNL1        0.1501
      5 C         142.9438  140.4594  159.0124 C.ar    1  UNL1        0.0534
      6 C         143.7978  141.2286  159.9762 C.ar    1  UNL1        0.0060
      7 C         143.4521  141.2462  161.4356 C.ar    1  UNL1        0.0173
      8 C         142.2523  140.4947  161.9314 C.ar    1  UNL1        0.0595
      9 C         141.3982  139.7255  160.9676 C.ar    1  UNL1        0.0134
     10 C         141.7440  139.7079  159.5081 C.ar    1  UNL1        0.0057
     11 C         140.2857  139.0849  161.7434 C.ar    1  UNL1       -0.0032
     12 C         139.1977  138.2224  161.1756 C.3     1  UNL1        0.0326
     13 C         140.4522  139.4582  163.1866 C.ar    1  UNL1        0.0737
     14 N         141.6676  140.3295  163.3029 N.ar    1  UNL1       -0.3281
     15 C         139.5598  139.0344  164.3155 C.ar    1  UNL1        0.0969
     16 C         139.4272  137.5810  164.6617 C.ar    1  UNL1        0.0229
     17 C         138.5349  137.1572  165.7905 C.ar    1  UNL1        0.0328
     18 C         137.7753  138.1869  166.5731 C.ar    1  UNL1        0.1592
     19 F         136.8829  137.7632  167.7020 F       1  UNL1       -0.2025
     20 C         137.9079  139.6404  166.2269 C.ar    1  UNL1        0.1284
     21 N         138.8002  140.0642  165.0981 N.ar    1  UNL1       -0.2400
     22 C         142.2042  140.9301  164.5683 C.3     1  UNL1        0.0855
     23 C         142.3257  140.0896  165.8047 C.3     1  UNL1        0.0226
     24 C         142.8623  140.6903  167.0701 C.3     1  UNL1        0.0019
     25 C         143.2773  142.1314  167.0991 C.3     1  UNL1        0.0001
     26 C         143.1557  142.9719  165.8626 C.3     1  UNL1        0.0019
     27 C         142.6192  142.3712  164.5973 C.3     1  UNL1        0.0226
     28 C         144.7332  139.5328  155.5934 C.3     1  UNL1        0.1261
     29 C         145.5972  140.7442  155.7834 C.3     1  UNL1        0.0270
     30 C         145.9429  140.7265  154.3239 C.3     1  UNL1        0.0043
     31 C         145.0790  139.5152  154.1339 C.3     1  UNL1        0.0270
     32 N         144.4358  136.9522  155.6358 N.am    1  UNL1       -0.2680
     33 C         143.8693  138.3215  155.4033 C.2     1  UNL1        0.2430
     34 O         142.4386  138.4794  154.9808 O.2     1  UNL1       -0.2730
     35 H         145.3748  136.8485  155.9131 H       1  UNL1        0.1563
     36 C         142.7325  133.4242  156.2695 C.ar    1  UNL1        0.2258
     37 N         143.5965  134.6355  156.4595 N.ar    1  UNL1       -0.1966
     38 C         143.5717  135.7408  155.4458 C.ar    1  UNL1        0.1373
     39 C         142.6830  135.6349  154.2421 C.ar    1  UNL1        0.0347
     40 C         141.8189  134.4235  154.0521 C.ar    1  UNL1        0.0075
     41 C         141.8437  133.3181  155.0658 C.ar    1  UNL1        0.0534
     42 C         140.9797  132.1068  154.8758 C.2     1  UNL1        0.0058
     43 C         141.5599  130.8572  154.2827 C.2     1  UNL1        0.0152
     44 C         140.6959  129.6459  154.0927 C.2     1  UNL1        0.0729
     45 O         140.8254  128.8202  152.8471 O.co2   1  UNL1       -0.5446
     46 O         139.7025  129.2602  155.1483 O.co2   1  UNL1       -0.5446
     47 O         142.7572  132.3188  157.2832 O.3     1  UNL1       -0.4602
     48 C         144.8570  131.2848  156.1556 C.3     1  UNL1        0.0512
     49 C         143.9053  131.3540  157.3129 C.3     1  UNL1        0.2072
@<TRIPOS>UNITY_ATOM_ATTR
45 1
charge -1
@<TRIPOS>BOND
     1    48    49    1
     2    49    47    1
     3    47    36    1
     4    36    37   ar
     5    37    38   ar
     6    38    32    1
     7    32    33   am
     8    33    34    2
     9    33    28    1
    10    28     1    1
    11     1     2   am
    12     2     3    2
    13     2     5    1
    14     5     6   ar
    15     6     7   ar
    16     7     8   ar
    17     8     9   ar
    18     9    10   ar
    19     9    11   ar
    20    11    12    1
    21    11    13   ar
    22    13    15    1
    23    15    16   ar
    24    16    17   ar
    25    17    18   ar
    26    18    19    1
    27    18    20   ar
    28    20    21   ar
    29    13    14   ar
    30    14    22    1
    31    22    23    1
    32    23    24    1
    33    24    25    1
    34    25    26    1
    35    26    27    1
    36    28    29    1
    37    29    30    1
    38    30    31    1
    39    38    39   ar
    40    39    40   ar
    41    40    41   ar
    42    41    42    1
    43    42    43    2
    44    43    44    1
    45    44    45   ar
    46    44    46   ar
    47    41    36   ar
    48    31    28    1
    49    10     5   ar
    50    21    15   ar
    51    27    22    1
    52    14     8   ar
    53    32    35    1
    54     1     4    1
@<TRIPOS>MOLECULE
*****
 49 54 0 0 0
SMALL
GASTEIGER

@<TRIPOS>ATOM
      1 N         137.0624  140.0677  155.7356 N.am    1  UNL1       -0.2964
      2 C         138.2973  140.8407  156.0926 C.2     1  UNL1        0.2461
      3 O         139.2033  141.3485  155.0103 O.2     1  UNL1       -0.2701
      4 H         136.4678  139.7345  156.4460 H       1  UNL1        0.1501
      5 C         138.6262  141.1061  157.5319 C.ar    1  UNL1        0.0534
      6 C         138.1179  142.3488  158.2005 C.ar    1  UNL1        0.0060
      7 C         138.4468  142.6141  159.6398 C.ar    1  UNL1        0.0173
      8 C         139.2841  141.6367  160.4103 C.ar    1  UNL1        0.0595
      9 C         139.7924  140.3940  159.7416 C.ar    1  UNL1        0.0134
     10 C         139.4634  140.1287  158.3024 C.ar    1  UNL1        0.0057
     11 C         140.5898  139.6190  160.7483 C.ar    1  UNL1       -0.0032
     12 C         141.2812  138.3100  160.5065 C.3     1  UNL1        0.0326
     13 C         140.5743  140.3828  162.0392 C.ar    1  UNL1        0.0737
     14 N         139.7673  141.6298  161.8303 N.ar    1  UNL1       -0.3281
     15 C         141.2476  139.9716  163.3151 C.ar    1  UNL1        0.0969
     16 C         140.4567  139.2982  164.3972 C.ar    1  UNL1        0.0229
     17 C         141.1299  138.8870  165.6730 C.ar    1  UNL1        0.0328
     18 C         142.5941  139.1493  165.8666 C.ar    1  UNL1        0.1592
     19 F         143.2674  138.7381  167.1424 F       1  UNL1       -0.2025
     20 C         143.3850  139.8226  164.7845 C.ar    1  UNL1        0.1284
     21 N         142.7117  140.2338  163.5087 N.ar    1  UNL1       -0.2400
     22 C         139.4919  142.6847  162.8605 C.3     1  UNL1        0.0855
     23 C         138.1134  142.8320  163.4332 C.3     1  UNL1        0.0226
     24 C         137.8381  143.8869  164.4634 C.3     1  UNL1        0.0019
     25 C         138.9413  144.7945  164.9209 C.3     1  UNL1        0.0001
     26 C         140.3198  144.6472  164.3483 C.3     1  UNL1        0.0019
     27 C         140.5951  143.5923  163.3181 C.3     1  UNL1        0.0226
     28 C         136.7335  139.8023  154.2964 C.3     1  UNL1        0.1261
     29 C         135.9123  141.0568  154.2528 C.3     1  UNL1        0.0270
     30 C         135.5834  140.7915  152.8136 C.3     1  UNL1        0.0043
     31 C         136.4046  139.5370  152.8572 C.3     1  UNL1        0.0270
     32 N         138.9012  138.5096  153.6801 N.am    1  UNL1       -0.2680
     33 C         137.5547  138.5479  154.3399 C.2     1  UNL1        0.2430
     34 O         137.0293  137.3316  155.0434 O.2     1  UNL1       -0.2730
     35 H         139.2460  139.3078  153.2184 H       1  UNL1        0.1563
     36 C         141.2768  135.6274  155.0215 C.ar    1  UNL1        0.2258
     37 N         140.4557  136.8819  154.9779 N.ar    1  UNL1       -0.1966
     38 C         139.7224  137.2550  153.7237 C.ar    1  UNL1        0.1373
     39 C         139.8102  136.3737  152.5132 C.ar    1  UNL1        0.0347
     40 C         140.6313  135.1191  152.5568 C.ar    1  UNL1        0.0075
     41 C         141.3647  134.7460  153.8110 C.ar    1  UNL1        0.0534
     42 C         142.1858  133.4915  153.8546 C.2     1  UNL1        0.0058
     43 C         141.6700  132.2822  154.5768 C.2     1  UNL1        0.0152
     44 C         142.4912  131.0277  154.6205 C.2     1  UNL1        0.0729
     45 O         142.1297  129.9275  155.5739 O.co2   1  UNL1       -0.5446
     46 O         143.6738  130.8734  153.7108 O.co2   1  UNL1       -0.5446
     47 O         142.0102  135.2543  156.2757 O.3     1  UNL1       -0.4602
     48 C         144.1853  136.4476  155.5046 C.3     1  UNL1        0.0512
     49 C         143.3169  135.9132  156.6047 C.3     1  UNL1        0.2072
@<TRIPOS>UNITY_ATOM_ATTR
45 1
charge -1
@<TRIPOS>BOND
     1    48    49    1
     2    49    47    1
     3    47    36    1
     4    36    37   ar
     5    37    38   ar
     6    38    32    1
     7    32    33   am
     8    33    34    2
     9    33    28    1
    10    28     1    1
    11     1     2   am
    12     2     3    2
    13     2     5    1
    14     5     6   ar
    15     6     7   ar
    16     7     8   ar
    17     8     9   ar
    18     9    10   ar
    19     9    11   ar
    20    11    12    1
    21    11    13   ar
    22    13    15    1
    23    15    16   ar
    24    16    17   ar
    25    17    18   ar
    26    18    19    1
    27    18    20   ar
    28    20    21   ar
    29    13    14   ar
    30    14    22    1
    31    22    23    1
    32    23    24    1
    33    24    25    1
    34    25    26    1
    35    26    27    1
    36    28    29    1
    37    29    30    1
    38    30    31    1
    39    38    39   ar
    40    39    40   ar
    41    40    41   ar
    42    41    42    1
    43    42    43    2
    44    43    44    1
    45    44    45   ar
    46    44    46   ar
    47    41    36   ar
    48    31    28    1
    49    10     5   ar
    50    21    15   ar
    51    27    22    1
    52    14     8   ar
    53    32    35    1
    54     1     4    1
@<TRIPOS>MOLECULE
*****
 49 54 0 0 0
SMALL
GASTEIGER

@<TRIPOS>ATOM
      1 N         139.5819  139.4641  155.7460 N.am    1  UNL1       -0.2964
      2 C         139.6176  138.7012  157.0370 C.2     1  UNL1        0.2461
      3 O         139.3594  137.2236  157.0424 O.2     1  UNL1       -0.2701
      4 H         139.7514  140.4339  155.7425 H       1  UNL1        0.1501
      5 C         139.9116  139.4159  158.3227 C.ar    1  UNL1        0.0534
      6 C         140.2618  140.8743  158.3069 C.ar    1  UNL1        0.0060
      7 C         140.5557  141.5890  159.5925 C.ar    1  UNL1        0.0173
      8 C         140.4995  140.8451  160.8939 C.ar    1  UNL1        0.0595
      9 C         140.1494  139.3867  160.9097 C.ar    1  UNL1        0.0134
     10 C         139.8554  138.6721  159.6241 C.ar    1  UNL1        0.0057
     11 C         140.1717  138.9200  162.3350 C.ar    1  UNL1       -0.0032
     12 C         139.8811  137.5277  162.8115 C.3     1  UNL1        0.0326
     13 C         140.5357  140.0901  163.2002 C.ar    1  UNL1        0.0737
     14 N         140.7383  141.2799  162.3096 N.ar    1  UNL1       -0.3281
     15 C         140.6730  140.0732  164.6939 C.ar    1  UNL1        0.0969
     16 C         139.5895  140.6543  165.5532 C.ar    1  UNL1        0.0229
     17 C         139.7267  140.6375  167.0468 C.ar    1  UNL1        0.0328
     18 C         140.9474  140.0395  167.6811 C.ar    1  UNL1        0.1592
     19 F         141.0847  140.0226  169.1747 F       1  UNL1       -0.2025
     20 C         142.0309  139.4584  166.8218 C.ar    1  UNL1        0.1284
     21 N         141.8936  139.4752  165.3282 N.ar    1  UNL1       -0.2400
     22 C         141.1138  142.6618  162.7561 C.3     1  UNL1        0.0855
     23 C         140.1062  143.7710  162.6900 C.3     1  UNL1        0.0226
     24 C         140.4817  145.1528  163.1366 C.3     1  UNL1        0.0019
     25 C         141.8648  145.4255  163.6492 C.3     1  UNL1        0.0001
     26 C         142.8723  144.3162  163.7154 C.3     1  UNL1        0.0019
     27 C         142.4968  142.9344  163.2688 C.3     1  UNL1        0.0226
     28 C         139.2879  138.7494  154.4604 C.3     1  UNL1        0.1261
     29 C         140.7567  138.5372  154.2425 C.3     1  UNL1        0.0270
     30 C         140.4628  137.8225  152.9569 C.3     1  UNL1        0.0043
     31 C         138.9940  138.0347  153.1748 C.3     1  UNL1        0.0270
     32 N         137.2792  140.3506  154.8493 N.am    1  UNL1       -0.2680
     33 C         137.8191  138.9616  154.6782 C.2     1  UNL1        0.2430
     34 O         136.8900  137.7848  154.7250 O.2     1  UNL1       -0.2730
     35 H         137.8889  141.1229  154.8187 H       1  UNL1        0.1563
     36 C         133.7023  140.3345  156.5687 C.ar    1  UNL1        0.2258
     37 N         135.1712  140.1223  156.3508 N.ar    1  UNL1       -0.1966
     38 C         135.8103  140.5627  155.0672 C.ar    1  UNL1        0.1373
     39 C         134.9806  141.2152  154.0015 C.ar    1  UNL1        0.0347
     40 C         133.5117  141.4274  154.2193 C.ar    1  UNL1        0.0075
     41 C         132.8726  140.9870  155.5029 C.ar    1  UNL1        0.0534
     42 C         131.4037  141.1992  155.7208 C.2     1  UNL1        0.0058
     43 C         130.6709  142.2414  154.9292 C.2     1  UNL1        0.0152
     44 C         129.2021  142.4535  155.1470 C.2     1  UNL1        0.0729
     45 O         128.2309  141.3540  154.8338 O.co2   1  UNL1       -0.5446
     46 O         128.7044  143.7651  155.6781 O.co2   1  UNL1       -0.5446
     47 O         133.0632  139.8941  157.8522 O.3     1  UNL1       -0.4602
     48 C         130.9200  138.4426  158.0749 C.3     1  UNL1        0.0512
     49 C         132.4104  138.5466  157.9413 C.3     1  UNL1        0.2072
@<TRIPOS>UNITY_ATOM_ATTR
45 1
charge -1
@<TRIPOS>BOND
     1    48    49    1
     2    49    47    1
     3    47    36    1
     4    36    37   ar
     5    37    38   ar
     6    38    32    1
     7    32    33   am
     8    33    34    2
     9    33    28    1
    10    28     1    1
    11     1     2   am
    12     2     3    2
    13     2     5    1
    14     5     6   ar
    15     6     7   ar
    16     7     8   ar
    17     8     9   ar
    18     9    10   ar
    19     9    11   ar
    20    11    12    1
    21    11    13   ar
    22    13    15    1
    23    15    16   ar
    24    16    17   ar
    25    17    18   ar
    26    18    19    1
    27    18    20   ar
    28    20    21   ar
    29    13    14   ar
    30    14    22    1
    31    22    23    1
    32    23    24    1
    33    24    25    1
    34    25    26    1
    35    26    27    1
    36    28    29    1
    37    29    30    1
    38    30    31    1
    39    38    39   ar
    40    39    40   ar
    41    40    41   ar
    42    41    42    1
    43    42    43    2
    44    43    44    1
    45    44    45   ar
    46    44    46   ar
    47    41    36   ar
    48    31    28    1
    49    10     5   ar
    50    21    15   ar
    51    27    22    1
    52    14     8   ar
    53    32    35    1
    54     1     4    1
@<TRIPOS>MOLECULE
*****
 49 54 0 0 0
SMALL
GASTEIGER

@<TRIPOS>ATOM
      1 N         142.0786  139.0749  155.8931 N.am    1  UNL1       -0.2964
      2 C         143.2928  139.2545  156.7553 C.2     1  UNL1        0.2461
      3 O         144.6456  138.8673  156.2357 O.2     1  UNL1       -0.2701
      4 H         141.1907  139.3291  156.2341 H       1  UNL1        0.1501
      5 C         143.1542  139.8214  158.1372 C.ar    1  UNL1        0.0534
      6 C         143.9167  141.0544  158.5219 C.ar    1  UNL1        0.0060
      7 C         143.7781  141.6212  159.9038 C.ar    1  UNL1        0.0173
      8 C         142.8770  140.9549  160.9008 C.ar    1  UNL1        0.0595
      9 C         142.1145  139.7219  160.5160 C.ar    1  UNL1        0.0134
     10 C         142.2531  139.1551  159.1342 C.ar    1  UNL1        0.0057
     11 C         141.3080  139.2863  161.7033 C.ar    1  UNL1       -0.0032
     12 C         140.3973  138.0958  161.7618 C.3     1  UNL1        0.0326
     13 C         141.5721  140.2501  162.8220 C.ar    1  UNL1        0.0737
     14 N         142.5418  141.2814  162.3260 N.ar    1  UNL1       -0.3281
     15 C         140.9717  140.1927  164.1955 C.ar    1  UNL1        0.0969
     16 C         141.7468  139.5870  165.3279 C.ar    1  UNL1        0.0229
     17 C         141.1465  139.5295  166.7014 C.ar    1  UNL1        0.0328
     18 C         139.7713  140.0778  166.9423 C.ar    1  UNL1        0.1592
     19 F         139.1710  140.0203  168.3158 F       1  UNL1       -0.2025
     20 C         138.9963  140.6835  165.8099 C.ar    1  UNL1        0.1284
     21 N         139.5965  140.7409  164.4364 N.ar    1  UNL1       -0.2400
     22 C         143.0815  142.4364  163.1164 C.3     1  UNL1        0.0855
     23 C         144.0564  142.1928  164.2300 C.3     1  UNL1        0.0226
     24 C         144.5961  143.3478  165.0203 C.3     1  UNL1        0.0019
     25 C         144.1609  144.7464  164.6970 C.3     1  UNL1        0.0001
     26 C         143.1860  144.9900  163.5834 C.3     1  UNL1        0.0019
     27 C         142.6463  143.8350  162.7931 C.3     1  UNL1        0.0226
     28 C         142.2172  138.5080  154.5112 C.3     1  UNL1        0.1261
     29 C         142.2480  139.8966  153.9447 C.3     1  UNL1        0.0270
     30 C         142.3866  139.3298  152.5629 C.3     1  UNL1        0.0043
     31 C         142.3558  137.9413  153.1293 C.3     1  UNL1        0.0270
     32 N         143.3467  136.1944  154.8590 N.am    1  UNL1       -0.2680
     33 C         142.1864  137.1195  155.0776 C.2     1  UNL1        0.2430
     34 O         140.9952  136.6560  155.8628 O.2     1  UNL1       -0.2730
     35 H         144.1285  136.4985  154.3437 H       1  UNL1        0.1563
     36 C         142.8320  132.2692  155.1393 C.ar    1  UNL1        0.2258
     37 N         142.8629  133.6578  154.5728 N.ar    1  UNL1       -0.1966
     38 C         143.3159  134.8057  155.4255 C.ar    1  UNL1        0.1373
     39 C         143.7380  134.5651  156.8446 C.ar    1  UNL1        0.0347
     40 C         143.7072  133.1765  157.4111 C.ar    1  UNL1        0.0075
     41 C         143.2542  132.0285  156.5584 C.ar    1  UNL1        0.0534
     42 C         143.2233  130.6400  157.1248 C.2     1  UNL1        0.0058
     43 C         144.3465  130.1600  157.9955 C.2     1  UNL1        0.0152
     44 C         144.3157  128.7714  158.5619 C.2     1  UNL1        0.0729
     45 O         143.5321  128.4874  159.8091 O.co2   1  UNL1       -0.5446
     46 O         145.0684  127.6668  157.8812 O.co2   1  UNL1       -0.5446
     47 O         142.3790  131.1213  154.2866 O.3     1  UNL1       -0.4602
     48 C         139.9208  130.3585  154.6405 C.3     1  UNL1        0.0512
     49 C         140.9580  131.0555  153.8108 C.3     1  UNL1        0.2072
@<TRIPOS>UNITY_ATOM_ATTR
45 1
charge -1
@<TRIPOS>BOND
     1    48    49    1
     2    49    47    1
     3    47    36    1
     4    36    37   ar
     5    37    38   ar
     6    38    32    1
     7    32    33   am
     8    33    34    2
     9    33    28    1
    10    28     1    1
    11     1     2   am
    12     2     3    2
    13     2     5    1
    14     5     6   ar
    15     6     7   ar
    16     7     8   ar
    17     8     9   ar
    18     9    10   ar
    19     9    11   ar
    20    11    12    1
    21    11    13   ar
    22    13    15    1
    23    15    16   ar
    24    16    17   ar
    25    17    18   ar
    26    18    19    1
    27    18    20   ar
    28    20    21   ar
    29    13    14   ar
    30    14    22    1
    31    22    23    1
    32    23    24    1
    33    24    25    1
    34    25    26    1
    35    26    27    1
    36    28    29    1
    37    29    30    1
    38    30    31    1
    39    38    39   ar
    40    39    40   ar
    41    40    41   ar
    42    41    42    1
    43    42    43    2
    44    43    44    1
    45    44    45   ar
    46    44    46   ar
    47    41    36   ar
    48    31    28    1
    49    10     5   ar
    50    21    15   ar
    51    27    22    1
    52    14     8   ar
    53    32    35    1
    54     1     4    1
@<TRIPOS>MOLECULE
*****
 49 54 0 0 0
SMALL
GASTEIGER

@<TRIPOS>ATOM
      1 N         142.0436  139.9876  156.4205 N.am    1  UNL1       -0.2964
      2 C         143.0043  140.0950  157.5674 C.2     1  UNL1        0.2461
      3 O         144.4548  139.7720  157.3636 O.2     1  UNL1       -0.2701
      4 H         141.0915  140.1996  156.5543 H       1  UNL1        0.1501
      5 C         142.5144  140.5254  158.9183 C.ar    1  UNL1        0.0534
      6 C         141.3047  141.4050  159.0323 C.ar    1  UNL1        0.0060
      7 C         140.8149  141.8353  160.3831 C.ar    1  UNL1        0.0173
      8 C         141.5348  141.3861  161.6200 C.ar    1  UNL1        0.0595
      9 C         142.7444  140.5065  161.5061 C.ar    1  UNL1        0.0134
     10 C         143.2342  140.0761  160.1553 C.ar    1  UNL1        0.0057
     11 C         143.2445  140.2243  162.8919 C.ar    1  UNL1       -0.0032
     12 C         144.4360  139.3844  163.2452 C.3     1  UNL1        0.0326
     13 C         142.3439  140.9295  163.8623 C.ar    1  UNL1        0.0737
     14 N         141.2872  141.6475  163.0763 N.ar    1  UNL1       -0.3281
     15 C         142.4767  140.9186  165.3564 C.ar    1  UNL1        0.0969
     16 C         142.9178  142.1568  166.0792 C.ar    1  UNL1        0.0229
     17 C         143.0506  142.1459  167.5732 C.ar    1  UNL1        0.0328
     18 C         142.7424  140.8969  168.3444 C.ar    1  UNL1        0.1592
     19 F         142.8752  140.8860  169.8386 F       1  UNL1       -0.2025
     20 C         142.3014  139.6587  167.6217 C.ar    1  UNL1        0.1284
     21 N         142.1685  139.6696  166.1276 N.ar    1  UNL1       -0.2400
     22 C         140.1778  142.4807  163.6463 C.3     1  UNL1        0.0855
     23 C         138.8250  141.8739  163.8740 C.3     1  UNL1        0.0226
     24 C         137.7157  142.7072  164.4440 C.3     1  UNL1        0.0019
     25 C         137.9590  144.1472  164.7863 C.3     1  UNL1        0.0001
     26 C         139.3118  144.7540  164.5585 C.3     1  UNL1        0.0019
     27 C         140.4211  143.9207  163.9885 C.3     1  UNL1        0.0226
     28 C         142.5335  139.5572  155.0696 C.3     1  UNL1        0.1261
     29 C         142.6741  140.9941  154.6629 C.3     1  UNL1        0.0270
     30 C         143.1639  140.5637  153.3120 C.3     1  UNL1        0.0043
     31 C         143.0233  139.1268  153.7188 C.3     1  UNL1        0.0270
     32 N         143.5700  137.1954  155.3820 N.am    1  UNL1       -0.2680
     33 C         142.3928  138.1203  155.4763 C.2     1  UNL1        0.2430
     34 O         141.0749  137.6082  155.9774 O.2     1  UNL1       -0.2730
     35 H         144.4349  137.5315  155.0531 H       1  UNL1        0.1563
     36 C         142.9880  133.2758  155.1630 C.ar    1  UNL1        0.2258
     37 N         143.1287  134.7127  154.7563 N.ar    1  UNL1       -0.1966
     38 C         143.4293  135.7584  155.7888 C.ar    1  UNL1        0.1373
     39 C         143.5892  135.3673  157.2280 C.ar    1  UNL1        0.0347
     40 C         143.4485  133.9303  157.6348 C.ar    1  UNL1        0.0075
     41 C         143.1479  132.8846  156.6023 C.ar    1  UNL1        0.0534
     42 C         143.0072  131.4477  157.0090 C.2     1  UNL1        0.0058
     43 C         144.1577  130.7353  157.6562 C.2     1  UNL1        0.0152
     44 C         144.0170  129.2984  158.0630 C.2     1  UNL1        0.0729
     45 O         145.0180  128.6809  158.9940 O.co2   1  UNL1       -0.5446
     46 O         142.8753  128.4789  157.5387 O.co2   1  UNL1       -0.5446
     47 O         142.6874  132.2301  154.1305 O.3     1  UNL1       -0.4602
     48 C         140.4226  130.9782  154.3613 C.3     1  UNL1        0.0512
     49 C         141.2747  132.0066  153.6785 C.3     1  UNL1        0.2072
@<TRIPOS>UNITY_ATOM_ATTR
45 1
charge -1
@<TRIPOS>BOND
     1    48    49    1
     2    49    47    1
     3    47    36    1
     4    36    37   ar
     5    37    38   ar
     6    38    32    1
     7    32    33   am
     8    33    34    2
     9    33    28    1
    10    28     1    1
    11     1     2   am
    12     2     3    2
    13     2     5    1
    14     5     6   ar
    15     6     7   ar
    16     7     8   ar
    17     8     9   ar
    18     9    10   ar
    19     9    11   ar
    20    11    12    1
    21    11    13   ar
    22    13    15    1
    23    15    16   ar
    24    16    17   ar
    25    17    18   ar
    26    18    19    1
    27    18    20   ar
    28    20    21   ar
    29    13    14   ar
    30    14    22    1
    31    22    23    1
    32    23    24    1
    33    24    25    1
    34    25    26    1
    35    26    27    1
    36    28    29    1
    37    29    30    1
    38    30    31    1
    39    38    39   ar
    40    39    40   ar
    41    40    41   ar
    42    41    42    1
    43    42    43    2
    44    43    44    1
    45    44    45   ar
    46    44    46   ar
    47    41    36   ar
    48    31    28    1
    49    10     5   ar
    50    21    15   ar
    51    27    22    1
    52    14     8   ar
    53    32    35    1
    54     1     4    1
@<TRIPOS>MOLECULE
*****
 49 54 0 0 0
SMALL
GASTEIGER

@<TRIPOS>ATOM
      1 N         139.8917  139.5933  157.0940 N.am    1  UNL1       -0.2964
      2 C         139.0407  139.7734  158.3159 C.2     1  UNL1        0.2461
      3 O         137.5581  139.9541  158.1774 O.2     1  UNL1       -0.2701
      4 H         140.8648  139.4747  157.1849 H       1  UNL1        0.1501
      5 C         139.6723  139.7729  159.6766 C.ar    1  UNL1        0.0534
      6 C         141.0296  139.1654  159.8731 C.ar    1  UNL1        0.0060
      7 C         141.6611  139.1650  161.2337 C.ar    1  UNL1        0.0173
      8 C         140.9353  139.7720  162.3977 C.ar    1  UNL1        0.0595
      9 C         139.5780  140.3795  162.2011 C.ar    1  UNL1        0.0134
     10 C         138.9465  140.3799  160.8405 C.ar    1  UNL1        0.0057
     11 C         139.1069  140.9002  163.5265 C.ar    1  UNL1       -0.0032
     12 C         137.7992  141.5862  163.7899 C.3     1  UNL1        0.0326
     13 C         140.1730  140.6146  164.5423 C.ar    1  UNL1        0.0737
     14 N         141.3031  139.9173  163.8447 N.ar    1  UNL1       -0.3281
     15 C         140.1186  140.9648  165.9999 C.ar    1  UNL1        0.0969
     16 C         140.6188  142.2985  166.4700 C.ar    1  UNL1        0.0229
     17 C         140.5644  142.6487  167.9275 C.ar    1  UNL1        0.0328
     18 C         140.0098  141.6652  168.9149 C.ar    1  UNL1        0.1592
     19 F         139.9553  142.0154  170.3725 F       1  UNL1       -0.2025
     20 C         139.5095  140.3315  168.4448 C.ar    1  UNL1        0.1284
     21 N         139.5639  139.9813  166.9873 N.ar    1  UNL1       -0.2400
     22 C         142.5771  139.4477  164.4820 C.3     1  UNL1        0.0855
     23 C         142.5286  138.5657  165.6944 C.3     1  UNL1        0.0226
     24 C         143.8027  138.0962  166.3317 C.3     1  UNL1        0.0019
     25 C         145.1253  138.5086  165.7567 C.3     1  UNL1        0.0001
     26 C         145.1738  139.3906  164.5443 C.3     1  UNL1        0.0019
     27 C         143.8997  139.8601  163.9070 C.3     1  UNL1        0.0226
     28 C         139.2602  139.5938  155.7334 C.3     1  UNL1        0.1261
     29 C         138.9454  141.0530  155.8801 C.3     1  UNL1        0.0270
     30 C         138.3138  141.0535  154.5195 C.3     1  UNL1        0.0043
     31 C         138.6286  139.5943  154.3728 C.3     1  UNL1        0.0270
     32 N         140.9512  137.7017  155.1761 N.am    1  UNL1       -0.2680
     33 C         139.5749  138.1346  155.5867 C.2     1  UNL1        0.2430
     34 O         138.5134  137.1081  155.8506 O.2     1  UNL1       -0.2730
     35 H         141.6479  138.3754  155.0029 H       1  UNL1        0.1563
     36 C         142.1416  134.0166  156.0436 C.ar    1  UNL1        0.2258
     37 N         141.8269  135.4758  156.1902 N.ar    1  UNL1       -0.1966
     38 C         141.2659  136.2424  155.0294 C.ar    1  UNL1        0.1373
     39 C         141.0197  135.5498  153.7219 C.ar    1  UNL1        0.0347
     40 C         141.3344  134.0905  153.5752 C.ar    1  UNL1        0.0075
     41 C         141.8954  133.3239  154.7360 C.ar    1  UNL1        0.0534
     42 C         142.2101  131.8647  154.5894 C.2     1  UNL1        0.0058
     43 C         143.5931  131.4308  154.2033 C.2     1  UNL1        0.0152
     44 C         143.9079  129.9716  154.0567 C.2     1  UNL1        0.0729
     45 O         143.6860  129.2849  152.7416 O.co2   1  UNL1       -0.5446
     46 O         144.4444  129.1990  155.2250 O.co2   1  UNL1       -0.5446
     47 O         142.7026  133.2500  157.2044 O.3     1  UNL1       -0.4602
     48 C         145.0852  132.2903  157.5948 C.3     1  UNL1        0.0512
     49 C         144.1319  133.4483  157.6138 C.3     1  UNL1        0.2072
@<TRIPOS>UNITY_ATOM_ATTR
45 1
charge -1
@<TRIPOS>BOND
     1    48    49    1
     2    49    47    1
     3    47    36    1
     4    36    37   ar
     5    37    38   ar
     6    38    32    1
     7    32    33   am
     8    33    34    2
     9    33    28    1
    10    28     1    1
    11     1     2   am
    12     2     3    2
    13     2     5    1
    14     5     6   ar
    15     6     7   ar
    16     7     8   ar
    17     8     9   ar
    18     9    10   ar
    19     9    11   ar
    20    11    12    1
    21    11    13   ar
    22    13    15    1
    23    15    16   ar
    24    16    17   ar
    25    17    18   ar
    26    18    19    1
    27    18    20   ar
    28    20    21   ar
    29    13    14   ar
    30    14    22    1
    31    22    23    1
    32    23    24    1
    33    24    25    1
    34    25    26    1
    35    26    27    1
    36    28    29    1
    37    29    30    1
    38    30    31    1
    39    38    39   ar
    40    39    40   ar
    41    40    41   ar
    42    41    42    1
    43    42    43    2
    44    43    44    1
    45    44    45   ar
    46    44    46   ar
    47    41    36   ar
    48    31    28    1
    49    10     5   ar
    50    21    15   ar
    51    27    22    1
    52    14     8   ar
    53    32    35    1
    54     1     4    1
@<TRIPOS>MOLECULE
*****
 49 54 0 0 0
SMALL
GASTEIGER

@<TRIPOS>ATOM
      1 N         142.6135  139.3021  156.6301 N.am    1  UNL1       -0.2964
      2 C         143.5833  139.8667  157.6254 C.2     1  UNL1        0.2461
      3 O         144.9440  140.3117  157.1775 O.2     1  UNL1       -0.2701
      4 H         141.7205  139.0101  156.9240 H       1  UNL1        0.1501
      5 C         143.1924  139.9864  159.0687 C.ar    1  UNL1        0.0534
      6 C         144.0292  140.8045  160.0070 C.ar    1  UNL1        0.0060
      7 C         143.6383  140.9242  161.4501 C.ar    1  UNL1        0.0173
      8 C         142.4106  140.2257  161.9550 C.ar    1  UNL1        0.0595
      9 C         141.5738  139.4076  161.0167 C.ar    1  UNL1        0.0134
     10 C         141.9647  139.2880  159.5736 C.ar    1  UNL1        0.0057
     11 C         140.4264  138.8370  161.7965 C.ar    1  UNL1       -0.0032
     12 C         139.3418  137.9557  161.2516 C.3     1  UNL1        0.0326
     13 C         140.5541  139.3025  163.2167 C.ar    1  UNL1        0.0737
     14 N         141.7804  140.1608  163.3148 N.ar    1  UNL1       -0.3281
     15 C         139.6196  138.9683  164.3415 C.ar    1  UNL1        0.0969
     16 C         139.4262  137.5399  164.7566 C.ar    1  UNL1        0.0229
     17 C         138.4917  137.2057  165.8813 C.ar    1  UNL1        0.0328
     18 C         137.7506  138.2999  166.5909 C.ar    1  UNL1        0.1592
     19 F         136.8160  137.9657  167.7156 F       1  UNL1       -0.2025
     20 C         137.9440  139.7282  166.1758 C.ar    1  UNL1        0.1284
     21 N         138.8785  140.0625  165.0511 N.ar    1  UNL1       -0.2400
     22 C         142.2875  140.8356  164.5547 C.3     1  UNL1        0.0855
     23 C         142.4309  140.0555  165.8279 C.3     1  UNL1        0.0226
     24 C         142.9380  140.7304  167.0677 C.3     1  UNL1        0.0019
     25 C         143.3016  142.1853  167.0345 C.3     1  UNL1        0.0001
     26 C         143.1582  142.9654  165.7613 C.3     1  UNL1        0.0019
     27 C         142.6511  142.2905  164.5214 C.3     1  UNL1        0.0226
     28 C         143.0044  139.1824  155.1868 C.3     1  UNL1        0.1261
     29 C         142.5252  140.5824  154.9410 C.3     1  UNL1        0.0270
     30 C         142.9161  140.4627  153.4978 C.3     1  UNL1        0.0043
     31 C         143.3953  139.0628  153.7436 C.3     1  UNL1        0.0270
     32 N         142.4935  136.6839  155.6827 N.am    1  UNL1       -0.2680
     33 C         143.4836  137.7825  155.4326 C.2     1  UNL1        0.2430
     34 O         144.9531  137.4811  155.4284 O.2     1  UNL1       -0.2730
     35 H         141.5290  136.8816  155.6855 H       1  UNL1        0.1563
     36 C         143.3791  132.8629  155.0780 C.ar    1  UNL1        0.2258
     37 N         142.8998  134.2628  154.8322 N.ar    1  UNL1       -0.1966
     38 C         142.9727  135.2839  155.9286 C.ar    1  UNL1        0.1373
     39 C         143.5249  134.9050  157.2708 C.ar    1  UNL1        0.0347
     40 C         144.0042  133.5050  157.5166 C.ar    1  UNL1        0.0075
     41 C         143.9313  132.4839  156.4202 C.ar    1  UNL1        0.0534
     42 C         144.4105  131.0840  156.6660 C.2     1  UNL1        0.0058
     43 C         143.9246  130.3245  157.8647 C.2     1  UNL1        0.0152
     44 C         144.4038  128.9245  158.1105 C.2     1  UNL1        0.0729
     45 O         145.0026  128.5587  159.4363 O.co2   1  UNL1       -0.5446
     46 O         144.2843  127.8904  157.0305 O.co2   1  UNL1       -0.5446
     47 O         143.3061  131.8418  153.9816 O.3     1  UNL1       -0.4602
     48 C         140.9057  131.1988  154.7395 C.3     1  UNL1        0.0512
     49 C         142.0755  130.9991  153.8221 C.3     1  UNL1        0.2072
@<TRIPOS>UNITY_ATOM_ATTR
45 1
charge -1
@<TRIPOS>BOND
     1    48    49    1
     2    49    47    1
     3    47    36    1
     4    36    37   ar
     5    37    38   ar
     6    38    32    1
     7    32    33   am
     8    33    34    2
     9    33    28    1
    10    28     1    1
    11     1     2   am
    12     2     3    2
    13     2     5    1
    14     5     6   ar
    15     6     7   ar
    16     7     8   ar
    17     8     9   ar
    18     9    10   ar
    19     9    11   ar
    20    11    12    1
    21    11    13   ar
    22    13    15    1
    23    15    16   ar
    24    16    17   ar
    25    17    18   ar
    26    18    19    1
    27    18    20   ar
    28    20    21   ar
    29    13    14   ar
    30    14    22    1
    31    22    23    1
    32    23    24    1
    33    24    25    1
    34    25    26    1
    35    26    27    1
    36    28    29    1
    37    29    30    1
    38    30    31    1
    39    38    39   ar
    40    39    40   ar
    41    40    41   ar
    42    41    42    1
    43    42    43    2
    44    43    44    1
    45    44    45   ar
    46    44    46   ar
    47    41    36   ar
    48    31    28    1
    49    10     5   ar
    50    21    15   ar
    51    27    22    1
    52    14     8   ar
    53    32    35    1
    54     1     4    1
