@<TRIPOS>MOLECULE
*****
 29 31 0 0 0
SMALL
GASTEIGER

@<TRIPOS>ATOM
      1 C         139.2410  141.1082  162.5980 C.ar    1  UNL1        0.1303
      2 N         140.0179  140.8030  163.8442 N.ar    1  UNL1       -0.2097
      3 C         139.8448  139.4807  164.5308 C.ar    1  UNL1        0.2209
      4 N         138.8948  138.4636  163.9712 N.ar    1  UNL1       -0.2096
      5 C         138.1180  138.7689  162.7249 C.ar    1  UNL1        0.1330
      6 C         138.2911  140.0912  162.0383 C.ar    1  UNL1        0.1783
      7 F         137.5142  140.3965  160.7920 F       1  UNL1       -0.2009
      8 C         139.6807  146.2988  161.7345 C.3     1  UNL1        0.0718
      9 C         139.6162  144.8165  161.5144 C.ar    1  UNL1        0.1208
     10 N         139.7446  144.1145  160.1950 N.ar    1  UNL1       -0.2293
     11 C         139.6197  142.6400  160.4403 C.ar    1  UNL1        0.1189
     12 C         139.4141  142.4306  161.9113 C.ar    1  UNL1        0.1003
     13 N         139.4119  143.7758  162.5751 N.ar    1  UNL1       -0.3155
     14 C         139.2364  144.0347  164.0421 C.3     1  UNL1        0.0868
     15 C         140.4384  144.1687  164.9293 C.3     1  UNL1        0.0245
     16 C         137.8587  144.1596  164.6221 C.3     1  UNL1        0.0245
     17 N         140.6217  139.1753  165.7772 N.pl3   1  UNL1       -0.2825
     18 H         141.1934  138.3748  165.8172 H       1  UNL1        0.1551
     19 C         140.5275  140.0897  166.9625 C.ar    1  UNL1        0.0505
     20 C         141.4435  141.2725  167.0719 C.ar    1  UNL1        0.0148
     21 C         141.3494  142.1869  168.2573 C.ar    1  UNL1        0.0058
     22 C         140.3392  141.9184  169.3332 C.ar    1  UNL1        0.0532
     23 C         139.4233  140.7357  169.2238 C.ar    1  UNL1        0.0058
     24 C         139.5174  139.8213  168.0384 C.ar    1  UNL1        0.0148
     25 C         140.2450  142.8328  170.5186 C.2     1  UNL1        0.2427
     26 N         140.0147  144.3013  170.3166 N.am    1  UNL1       -0.3253
     27 O         140.3812  142.2788  171.9058 O.2     1  UNL1       -0.2704
     28 H         139.9253  144.6649  169.4061 H       1  UNL1        0.1453
     29 H         139.9529  144.9014  171.0946 H       1  UNL1        0.1453
@<TRIPOS>BOND
     1     8     9    1
     2     9    10   ar
     3    10    11   ar
     4    11    12   ar
     5    12     1    1
     6     1     2   ar
     7     2     3   ar
     8     3    17    1
     9    17    19    1
    10    19    20   ar
    11    20    21   ar
    12    21    22   ar
    13    22    25    1
    14    25    26   am
    15    25    27    2
    16    22    23   ar
    17    23    24   ar
    18     3     4   ar
    19     4     5   ar
    20     5     6   ar
    21     6     7    1
    22    12    13   ar
    23    13    14    1
    24    14    15    1
    25    14    16    1
    26    13     9   ar
    27     6     1   ar
    28    24    19   ar
    29    17    18    1
    30    26    28    1
    31    26    29    1
@<TRIPOS>MOLECULE
*****
 29 31 0 0 0
SMALL
GASTEIGER

@<TRIPOS>ATOM
      1 C         139.0878  141.1368  163.3642 C.ar    1  UNL1        0.1303
      2 N         140.0592  140.7511  164.4400 N.ar    1  UNL1       -0.2097
      3 C         140.2568  139.3058  164.7891 C.ar    1  UNL1        0.2209
      4 N         139.4829  138.2461  164.0623 N.ar    1  UNL1       -0.2096
      5 C         138.5115  138.6318  162.9864 C.ar    1  UNL1        0.1330
      6 C         138.3139  140.0771  162.6374 C.ar    1  UNL1        0.1783
      7 F         137.3424  140.4629  161.5615 F       1  UNL1       -0.2009
      8 C         139.9982  146.0885  161.7727 C.3     1  UNL1        0.0718
      9 C         139.3087  144.8583  162.2836 C.ar    1  UNL1        0.1208
     10 N         137.8636  144.7546  162.6723 N.ar    1  UNL1       -0.2293
     11 C         137.6049  143.3479  163.1244 C.ar    1  UNL1        0.1189
     12 C         138.8901  142.5822  163.0151 C.ar    1  UNL1        0.1003
     13 N         139.9431  143.5157  162.4955 N.ar    1  UNL1       -0.3155
     14 C         141.3785  143.1676  162.2337 C.3     1  UNL1        0.0868
     15 C         142.4184  143.4366  163.2806 C.3     1  UNL1        0.0245
     16 C         141.7739  142.5506  160.9249 C.3     1  UNL1        0.0245
     17 N         141.2283  138.9200  165.8650 N.pl3   1  UNL1       -0.2825
     18 H         141.8068  138.1323  165.7464 H       1  UNL1        0.1551
     19 C         141.3182  139.7344  167.1214 C.ar    1  UNL1        0.0505
     20 C         140.0752  140.0572  167.8965 C.ar    1  UNL1        0.0148
     21 C         140.1651  140.8716  169.1530 C.ar    1  UNL1        0.0058
     22 C         141.4980  141.3632  169.6343 C.ar    1  UNL1        0.0532
     23 C         142.7410  141.0404  168.8592 C.ar    1  UNL1        0.0058
     24 C         142.6511  140.2260  167.6027 C.ar    1  UNL1        0.0148
     25 C         141.5880  142.1776  170.8908 C.2     1  UNL1        0.2427
     26 N         142.7763  143.0618  171.1280 N.am    1  UNL1       -0.3253
     27 O         140.4896  142.1079  171.9099 O.2     1  UNL1       -0.2704
     28 H         143.4972  143.1075  170.4591 H       1  UNL1        0.1453
     29 H         142.8354  143.5963  171.9526 H       1  UNL1        0.1453
@<TRIPOS>BOND
     1     8     9    1
     2     9    10   ar
     3    10    11   ar
     4    11    12   ar
     5    12     1    1
     6     1     2   ar
     7     2     3   ar
     8     3    17    1
     9    17    19    1
    10    19    20   ar
    11    20    21   ar
    12    21    22   ar
    13    22    25    1
    14    25    26   am
    15    25    27    2
    16    22    23   ar
    17    23    24   ar
    18     3     4   ar
    19     4     5   ar
    20     5     6   ar
    21     6     7    1
    22    12    13   ar
    23    13    14    1
    24    14    15    1
    25    14    16    1
    26    13     9   ar
    27     6     1   ar
    28    24    19   ar
    29    17    18    1
    30    26    28    1
    31    26    29    1
@<TRIPOS>MOLECULE
*****
 29 31 0 0 0
SMALL
GASTEIGER

@<TRIPOS>ATOM
      1 C         140.4992  141.1900  162.9042 C.ar    1  UNL1        0.1303
      2 N         140.8214  140.8132  164.3199 N.ar    1  UNL1       -0.2097
      3 C         141.4952  139.5055  164.6130 C.ar    1  UNL1        0.2209
      4 N         141.8469  138.5748  163.4905 N.ar    1  UNL1       -0.2096
      5 C         141.5247  138.9517  162.0748 C.ar    1  UNL1        0.1330
      6 C         140.8509  140.2593  161.7817 C.ar    1  UNL1        0.1783
      7 F         140.5286  140.6363  160.3660 F       1  UNL1       -0.2009
      8 C         139.7000  146.2958  161.8209 C.3     1  UNL1        0.0718
      9 C         139.4580  144.8446  162.1131 C.ar    1  UNL1        0.1208
     10 N         138.1188  144.1754  162.2067 N.ar    1  UNL1       -0.2293
     11 C         138.3458  142.7250  162.5144 C.ar    1  UNL1        0.1189
     12 C         139.8253  142.4977  162.6110 C.ar    1  UNL1        0.1003
     13 N         140.5127  143.8077  162.3630 N.ar    1  UNL1       -0.3155
     14 C         141.9946  144.0400  162.3646 C.3     1  UNL1        0.0868
     15 C         142.8286  143.5710  161.2094 C.3     1  UNL1        0.0245
     16 C         142.6426  144.7414  163.5214 C.3     1  UNL1        0.0245
     17 N         141.8174  139.1286  166.0287 N.pl3   1  UNL1       -0.2825
     18 H         142.2603  138.2706  166.2211 H       1  UNL1        0.1551
     19 C         141.4649  140.0589  167.1513 C.ar    1  UNL1        0.0505
     20 C         142.4601  141.0783  167.6211 C.ar    1  UNL1        0.0148
     21 C         142.1076  142.0086  168.7437 C.ar    1  UNL1        0.0058
     22 C         140.7599  141.9196  169.3965 C.ar    1  UNL1        0.0532
     23 C         139.7649  140.9002  168.9267 C.ar    1  UNL1        0.0058
     24 C         140.1174  139.9699  167.8041 C.ar    1  UNL1        0.0148
     25 C         140.4074  142.8499  170.5191 C.2     1  UNL1        0.2427
     26 N         140.1285  144.2962  170.2351 N.am    1  UNL1       -0.3253
     27 O         140.3338  142.3340  171.9256 O.2     1  UNL1       -0.2704
     28 H         140.1768  144.6348  169.3119 H       1  UNL1        0.1453
     29 H         139.8972  144.9068  170.9719 H       1  UNL1        0.1453
@<TRIPOS>BOND
     1     8     9    1
     2     9    10   ar
     3    10    11   ar
     4    11    12   ar
     5    12     1    1
     6     1     2   ar
     7     2     3   ar
     8     3    17    1
     9    17    19    1
    10    19    20   ar
    11    20    21   ar
    12    21    22   ar
    13    22    25    1
    14    25    26   am
    15    25    27    2
    16    22    23   ar
    17    23    24   ar
    18     3     4   ar
    19     4     5   ar
    20     5     6   ar
    21     6     7    1
    22    12    13   ar
    23    13    14    1
    24    14    15    1
    25    14    16    1
    26    13     9   ar
    27     6     1   ar
    28    24    19   ar
    29    17    18    1
    30    26    28    1
    31    26    29    1
@<TRIPOS>MOLECULE
*****
 29 31 0 0 0
SMALL
GASTEIGER

@<TRIPOS>ATOM
      1 C         142.5637  143.0252  163.0366 C.ar    1  UNL1        0.1303
      2 N         141.8800  141.8695  163.7052 N.ar    1  UNL1       -0.2097
      3 C         142.6769  140.9004  164.5272 C.ar    1  UNL1        0.2209
      4 N         144.1573  141.0869  164.6807 N.ar    1  UNL1       -0.2096
      5 C         144.8409  142.2426  164.0121 C.ar    1  UNL1        0.1330
      6 C         144.0441  143.2118  163.1901 C.ar    1  UNL1        0.1783
      7 F         144.7277  144.3675  162.5215 F       1  UNL1       -0.2009
      8 C         140.2636  145.4283  158.9358 C.3     1  UNL1        0.0718
      9 C         140.7097  145.0990  160.3296 C.ar    1  UNL1        0.1208
     10 N         140.3719  145.8729  161.5694 N.ar    1  UNL1       -0.2293
     11 C         141.0252  145.1902  162.7344 C.ar    1  UNL1        0.1189
     12 C         141.7669  143.9945  162.2146 C.ar    1  UNL1        0.1003
     13 N         141.5718  143.9381  160.7283 N.ar    1  UNL1       -0.3155
     14 C         142.1393  142.9027  159.8033 C.3     1  UNL1        0.0868
     15 C         143.5772  142.9794  159.3833 C.3     1  UNL1        0.0245
     16 C         141.2689  141.7904  159.2982 C.3     1  UNL1        0.0245
     17 N         141.9932  139.7446  165.1957 N.pl3   1  UNL1       -0.2825
     18 H         141.8162  138.9182  164.6907 H       1  UNL1        0.1551
     19 C         141.5793  139.8479  166.6338 C.ar    1  UNL1        0.0505
     20 C         140.1713  140.2294  166.9834 C.ar    1  UNL1        0.0148
     21 C         139.7574  140.3327  168.4215 C.ar    1  UNL1        0.0058
     22 C         140.7515  140.0545  169.5099 C.ar    1  UNL1        0.0532
     23 C         142.1593  139.6731  169.1602 C.ar    1  UNL1        0.0058
     24 C         142.5733  139.5698  167.7222 C.ar    1  UNL1        0.0148
     25 C         140.3375  140.1579  170.9479 C.2     1  UNL1        0.2427
     26 N         139.5994  139.0259  171.5991 N.am    1  UNL1       -0.3253
     27 O         140.6617  141.3930  171.7348 O.2     1  UNL1       -0.2704
     28 H         139.3866  138.2152  171.0827 H       1  UNL1        0.1453
     29 H         139.3277  139.0937  172.5430 H       1  UNL1        0.1453
@<TRIPOS>BOND
     1     8     9    1
     2     9    10   ar
     3    10    11   ar
     4    11    12   ar
     5    12     1    1
     6     1     2   ar
     7     2     3   ar
     8     3    17    1
     9    17    19    1
    10    19    20   ar
    11    20    21   ar
    12    21    22   ar
    13    22    25    1
    14    25    26   am
    15    25    27    2
    16    22    23   ar
    17    23    24   ar
    18     3     4   ar
    19     4     5   ar
    20     5     6   ar
    21     6     7    1
    22    12    13   ar
    23    13    14    1
    24    14    15    1
    25    14    16    1
    26    13     9   ar
    27     6     1   ar
    28    24    19   ar
    29    17    18    1
    30    26    28    1
    31    26    29    1
@<TRIPOS>MOLECULE
*****
 29 31 0 0 0
SMALL
GASTEIGER

@<TRIPOS>ATOM
      1 C         141.1753  141.1711  162.7500 C.ar    1  UNL1        0.1303
      2 N         141.6065  140.8745  164.1557 N.ar    1  UNL1       -0.2097
      3 C         141.5792  139.4646  164.6668 C.ar    1  UNL1        0.2209
      4 N         141.1206  138.3513  163.7722 N.ar    1  UNL1       -0.2096
      5 C         140.6894  138.6479  162.3665 C.ar    1  UNL1        0.1330
      6 C         140.7167  140.0578  161.8554 C.ar    1  UNL1        0.1783
      7 F         140.2854  140.3545  160.4497 F       1  UNL1       -0.2009
      8 C         139.9365  146.2363  161.9186 C.3     1  UNL1        0.0718
      9 C         140.6331  144.9093  161.8567 C.ar    1  UNL1        0.1208
     10 N         141.8560  144.5924  161.0478 N.ar    1  UNL1       -0.2293
     11 C         142.2079  143.1535  161.2840 C.ar    1  UNL1        0.1189
     12 C         141.2026  142.5811  162.2388 C.ar    1  UNL1        0.1003
     13 N         140.2293  143.6663  162.5927 N.ar    1  UNL1       -0.3155
     14 C         139.0579  143.5320  163.5199 C.3     1  UNL1        0.0868
     15 C         139.2322  143.7784  164.9892 C.3     1  UNL1        0.0245
     16 C         137.7121  143.1513  162.9779 C.3     1  UNL1        0.0245
     17 N         142.0104  139.1679  166.0725 N.pl3   1  UNL1       -0.2825
     18 H         142.5578  138.3718  166.2619 H       1  UNL1        0.1551
     19 C         141.6077  140.0842  167.1898 C.ar    1  UNL1        0.0505
     20 C         140.2073  140.0429  167.7257 C.ar    1  UNL1        0.0148
     21 C         139.8045  140.9592  168.8430 C.ar    1  UNL1        0.0058
     22 C         140.8022  141.9168  169.4242 C.ar    1  UNL1        0.0532
     23 C         142.2025  141.9580  168.8883 C.ar    1  UNL1        0.0058
     24 C         142.6053  141.0417  167.7710 C.ar    1  UNL1        0.0148
     25 C         140.3995  142.8331  170.5415 C.2     1  UNL1        0.2427
     26 N         140.0468  144.2616  170.2497 N.am    1  UNL1       -0.3253
     27 O         140.3494  142.3209  171.9504 O.2     1  UNL1       -0.2704
     28 H         140.0797  144.5977  169.3249 H       1  UNL1        0.1453
     29 H         139.7824  144.8630  170.9829 H       1  UNL1        0.1453
@<TRIPOS>BOND
     1     8     9    1
     2     9    10   ar
     3    10    11   ar
     4    11    12   ar
     5    12     1    1
     6     1     2   ar
     7     2     3   ar
     8     3    17    1
     9    17    19    1
    10    19    20   ar
    11    20    21   ar
    12    21    22   ar
    13    22    25    1
    14    25    26   am
    15    25    27    2
    16    22    23   ar
    17    23    24   ar
    18     3     4   ar
    19     4     5   ar
    20     5     6   ar
    21     6     7    1
    22    12    13   ar
    23    13    14    1
    24    14    15    1
    25    14    16    1
    26    13     9   ar
    27     6     1   ar
    28    24    19   ar
    29    17    18    1
    30    26    28    1
    31    26    29    1
@<TRIPOS>MOLECULE
*****
 29 31 0 0 0
SMALL
GASTEIGER

@<TRIPOS>ATOM
      1 C         139.2089  140.0168  162.8067 C.ar    1  UNL1        0.1303
      2 N         140.2244  140.2089  163.8938 N.ar    1  UNL1       -0.2097
      3 C         140.5404  139.0825  164.8325 C.ar    1  UNL1        0.2209
      4 N         139.8408  137.7639  164.6841 N.ar    1  UNL1       -0.2096
      5 C         138.8253  137.5718  163.5971 C.ar    1  UNL1        0.1330
      6 C         138.5094  138.6982  162.6583 C.ar    1  UNL1        0.1783
      7 F         137.4938  138.5061  161.5712 F       1  UNL1       -0.2009
      8 C         138.9950  143.0413  158.4838 C.3     1  UNL1        0.0718
      9 C         138.7946  142.5335  159.8809 C.ar    1  UNL1        0.1208
     10 N         138.0186  143.2199  160.9657 N.ar    1  UNL1       -0.2293
     11 C         138.0794  142.3607  162.1937 C.ar    1  UNL1        0.1189
     12 C         138.8929  141.1433  161.8679 C.ar    1  UNL1        0.1003
     13 N         139.3349  141.2501  160.4385 N.ar    1  UNL1       -0.3155
     14 C         140.1705  140.2492  159.6969 C.3     1  UNL1        0.0868
     15 C         141.6646  140.3810  159.6855 C.3     1  UNL1        0.0245
     16 C         139.5119  139.1165  158.9666 C.3     1  UNL1        0.0245
     17 N         141.5559  139.2746  165.9197 N.pl3   1  UNL1       -0.2825
     18 H         142.4199  138.8048  165.8748 H       1  UNL1        0.1551
     19 C         141.2550  140.1825  167.0752 C.ar    1  UNL1        0.0505
     20 C         140.0133  139.9726  167.8903 C.ar    1  UNL1        0.0148
     21 C         139.7124  140.8805  169.0458 C.ar    1  UNL1        0.0058
     22 C         140.6531  141.9982  169.3862 C.ar    1  UNL1        0.0532
     23 C         141.8946  142.2080  168.5711 C.ar    1  UNL1        0.0058
     24 C         142.1956  141.3002  167.4156 C.ar    1  UNL1        0.0148
     25 C         140.3522  142.9061  170.5417 C.2     1  UNL1        0.2427
     26 N         140.0669  144.3588  170.2997 N.am    1  UNL1       -0.3253
     27 O         140.3364  142.3614  171.9392 O.2     1  UNL1       -0.2704
     28 H         140.0772  144.7163  169.3824 H       1  UNL1        0.1453
     29 H         139.8694  144.9546  171.0580 H       1  UNL1        0.1453
@<TRIPOS>BOND
     1     8     9    1
     2     9    10   ar
     3    10    11   ar
     4    11    12   ar
     5    12     1    1
     6     1     2   ar
     7     2     3   ar
     8     3    17    1
     9    17    19    1
    10    19    20   ar
    11    20    21   ar
    12    21    22   ar
    13    22    25    1
    14    25    26   am
    15    25    27    2
    16    22    23   ar
    17    23    24   ar
    18     3     4   ar
    19     4     5   ar
    20     5     6   ar
    21     6     7    1
    22    12    13   ar
    23    13    14    1
    24    14    15    1
    25    14    16    1
    26    13     9   ar
    27     6     1   ar
    28    24    19   ar
    29    17    18    1
    30    26    28    1
    31    26    29    1
@<TRIPOS>MOLECULE
*****
 29 31 0 0 0
SMALL
GASTEIGER

@<TRIPOS>ATOM
      1 C         143.2804  141.3681  163.8351 C.ar    1  UNL1        0.1303
      2 N         142.9598  141.1168  165.2787 N.ar    1  UNL1       -0.2097
      3 C         143.3095  139.8001  165.9064 C.ar    1  UNL1        0.2209
      4 N         143.9799  138.7348  165.0905 N.ar    1  UNL1       -0.2096
      5 C         144.3005  138.9861  163.6469 C.ar    1  UNL1        0.1330
      6 C         143.9507  140.3027  163.0192 C.ar    1  UNL1        0.1783
      7 F         144.2713  140.5541  161.5755 F       1  UNL1       -0.2009
      8 C         140.5800  145.6320  162.2834 C.3     1  UNL1        0.0718
      9 C         141.6894  144.6447  162.4941 C.ar    1  UNL1        0.1208
     10 N         143.0955  144.7771  161.9885 N.ar    1  UNL1       -0.2293
     11 C         143.8626  143.5658  162.4293 C.ar    1  UNL1        0.1189
     12 C         142.9307  142.6848  163.2073 C.ar    1  UNL1        0.1003
     13 N         141.5876  143.3516  163.2474 N.ar    1  UNL1       -0.3155
     14 C         140.3585  142.8188  163.9222 C.3     1  UNL1        0.0868
     15 C         139.4601  141.8612  163.1970 C.3     1  UNL1        0.0245
     16 C         140.0278  143.2435  165.3223 C.3     1  UNL1        0.0245
     17 N         142.9889  139.5488  167.3501 N.pl3   1  UNL1       -0.2825
     18 H         143.2817  138.7134  167.7811 H       1  UNL1        0.1551
     19 C         142.2224  140.5701  168.1369 C.ar    1  UNL1        0.0505
     20 C         142.9556  141.6183  168.9204 C.ar    1  UNL1        0.0148
     21 C         142.1890  142.6397  169.7073 C.ar    1  UNL1        0.0058
     22 C         140.6892  142.6129  169.7106 C.ar    1  UNL1        0.0532
     23 C         139.9561  141.5647  168.9272 C.ar    1  UNL1        0.0058
     24 C         140.7226  140.5434  168.1403 C.ar    1  UNL1        0.0148
     25 C         139.9226  143.6343  170.4975 C.2     1  UNL1        0.2427
     26 N         138.9347  143.1936  171.5367 N.am    1  UNL1       -0.3253
     27 O         140.1439  145.0962  170.2452 O.2     1  UNL1       -0.2704
     28 H         138.7894  142.2341  171.7023 H       1  UNL1        0.1453
     29 H         138.4315  143.8640  172.0532 H       1  UNL1        0.1453
@<TRIPOS>BOND
     1     8     9    1
     2     9    10   ar
     3    10    11   ar
     4    11    12   ar
     5    12     1    1
     6     1     2   ar
     7     2     3   ar
     8     3    17    1
     9    17    19    1
    10    19    20   ar
    11    20    21   ar
    12    21    22   ar
    13    22    25    1
    14    25    26   am
    15    25    27    2
    16    22    23   ar
    17    23    24   ar
    18     3     4   ar
    19     4     5   ar
    20     5     6   ar
    21     6     7    1
    22    12    13   ar
    23    13    14    1
    24    14    15    1
    25    14    16    1
    26    13     9   ar
    27     6     1   ar
    28    24    19   ar
    29    17    18    1
    30    26    28    1
    31    26    29    1
@<TRIPOS>MOLECULE
*****
 29 31 0 0 0
SMALL
GASTEIGER

@<TRIPOS>ATOM
      1 C         140.7627  140.4691  163.1052 C.ar    1  UNL1        0.1303
      2 N         140.0260  140.4287  164.4112 N.ar    1  UNL1       -0.2097
      3 C         139.3520  139.1637  164.8532 C.ar    1  UNL1        0.2209
      4 N         139.4146  137.9391  163.9892 N.ar    1  UNL1       -0.2096
      5 C         140.1512  137.9795  162.6832 C.ar    1  UNL1        0.1330
      6 C         140.8253  139.2445  162.2412 C.ar    1  UNL1        0.1783
      7 F         141.5620  139.2849  160.9352 F       1  UNL1       -0.2009
      8 C         144.0708  144.5777  162.8667 C.3     1  UNL1        0.0718
      9 C         142.9574  143.6226  162.5535 C.ar    1  UNL1        0.1208
     10 N         141.9908  143.7388  161.4122 N.ar    1  UNL1       -0.2293
     11 C         141.0511  142.5717  161.4800 C.ar    1  UNL1        0.1189
     12 C         141.4368  141.7341  162.6631 C.ar    1  UNL1        0.1003
     13 N         142.6149  142.3836  163.3265 N.ar    1  UNL1       -0.3155
     14 C         143.3258  141.8822  164.5485 C.3     1  UNL1        0.0868
     15 C         143.0602  142.5138  165.8829 C.3     1  UNL1        0.0245
     16 C         144.3023  140.7492  164.4362 C.3     1  UNL1        0.0245
     17 N         138.6152  139.1233  166.1593 N.pl3   1  UNL1       -0.2825
     18 H         137.6932  138.7799  166.1939 H       1  UNL1        0.1551
     19 C         139.2834  139.6062  167.4124 C.ar    1  UNL1        0.0505
     20 C         138.4794  139.8007  168.6638 C.ar    1  UNL1        0.0148
     21 C         139.1475  140.2836  169.9170 C.ar    1  UNL1        0.0058
     22 C         140.6196  140.5719  169.9188 C.ar    1  UNL1        0.0532
     23 C         141.4235  140.3773  168.6675 C.ar    1  UNL1        0.0058
     24 C         140.7554  139.8944  167.4143 C.ar    1  UNL1        0.0148
     25 C         141.2877  141.0547  171.1720 C.2     1  UNL1        0.2427
     26 N         142.6037  140.4708  171.5931 N.am    1  UNL1       -0.3253
     27 O         140.6399  142.1215  172.0040 O.2     1  UNL1       -0.2704
     28 H         143.0288  139.7706  171.0470 H       1  UNL1        0.1453
     29 H         143.0422  140.7877  172.4156 H       1  UNL1        0.1453
@<TRIPOS>BOND
     1     8     9    1
     2     9    10   ar
     3    10    11   ar
     4    11    12   ar
     5    12     1    1
     6     1     2   ar
     7     2     3   ar
     8     3    17    1
     9    17    19    1
    10    19    20   ar
    11    20    21   ar
    12    21    22   ar
    13    22    25    1
    14    25    26   am
    15    25    27    2
    16    22    23   ar
    17    23    24   ar
    18     3     4   ar
    19     4     5   ar
    20     5     6   ar
    21     6     7    1
    22    12    13   ar
    23    13    14    1
    24    14    15    1
    25    14    16    1
    26    13     9   ar
    27     6     1   ar
    28    24    19   ar
    29    17    18    1
    30    26    28    1
    31    26    29    1
@<TRIPOS>MOLECULE
*****
 29 31 0 0 0
SMALL
GASTEIGER

@<TRIPOS>ATOM
      1 C         140.4120  141.2398  166.1068 C.ar    1  UNL1        0.1303
      2 N         140.8545  142.5791  165.5964 N.ar    1  UNL1       -0.2097
      3 C         139.9561  143.3719  164.6940 C.ar    1  UNL1        0.2209
      4 N         138.6153  142.8255  164.3021 N.ar    1  UNL1       -0.2096
      5 C         138.1728  141.4862  164.8126 C.ar    1  UNL1        0.1330
      6 C         139.0712  140.6934  165.7149 C.ar    1  UNL1        0.1783
      7 F         138.6288  139.3541  166.2254 F       1  UNL1       -0.2009
      8 C         142.6005  139.1360  170.4273 C.3     1  UNL1        0.0718
      9 C         142.3163  139.4799  168.9952 C.ar    1  UNL1        0.1208
     10 N         143.0694  138.9738  167.8007 N.ar    1  UNL1       -0.2293
     11 C         142.4477  139.5714  166.5733 C.ar    1  UNL1        0.1189
     12 C         141.3105  140.4469  167.0092 C.ar    1  UNL1        0.1003
     13 N         141.2292  140.3904  168.5060 N.ar    1  UNL1       -0.3155
     14 C         140.2354  141.1168  169.3631 C.3     1  UNL1        0.0868
     15 C         139.0503  140.3859  169.9210 C.3     1  UNL1        0.0245
     16 C         140.4267  142.5741  169.6624 C.3     1  UNL1        0.0245
     17 N         140.3985  144.7112  164.1836 N.pl3   1  UNL1       -0.2825
     18 H         140.5582  145.4502  164.8142 H       1  UNL1        0.1551
     19 C         140.5976  144.9246  162.7122 C.ar    1  UNL1        0.0505
     20 C         141.6589  144.1581  161.9800 C.ar    1  UNL1        0.0148
     21 C         141.8580  144.3715  160.5087 C.ar    1  UNL1        0.0058
     22 C         140.9957  145.3515  159.7695 C.ar    1  UNL1        0.0532
     23 C         139.9344  146.1179  160.5017 C.ar    1  UNL1        0.0058
     24 C         139.7353  145.9045  161.9731 C.ar    1  UNL1        0.0148
     25 C         141.1947  145.5649  158.2982 C.2     1  UNL1        0.2427
     26 N         142.5699  145.8214  157.7568 N.am    1  UNL1       -0.3253
     27 O         140.0186  145.5218  157.3682 O.2     1  UNL1       -0.2704
     28 H         143.3419  145.8497  158.3672 H       1  UNL1        0.1453
     29 H         142.7006  145.9615  156.7912 H       1  UNL1        0.1453
@<TRIPOS>BOND
     1     8     9    1
     2     9    10   ar
     3    10    11   ar
     4    11    12   ar
     5    12     1    1
     6     1     2   ar
     7     2     3   ar
     8     3    17    1
     9    17    19    1
    10    19    20   ar
    11    20    21   ar
    12    21    22   ar
    13    22    25    1
    14    25    26   am
    15    25    27    2
    16    22    23   ar
    17    23    24   ar
    18     3     4   ar
    19     4     5   ar
    20     5     6   ar
    21     6     7    1
    22    12    13   ar
    23    13    14    1
    24    14    15    1
    25    14    16    1
    26    13     9   ar
    27     6     1   ar
    28    24    19   ar
    29    17    18    1
    30    26    28    1
    31    26    29    1
