@<TRIPOS>MOLECULE
*****
 36 39 0 0 0
SMALL
GASTEIGER

@<TRIPOS>ATOM
      1 C         138.9741  138.1296  164.1143 C.ar    1  UNL1        0.1534
      2 C         138.2490  138.0112  165.4220 C.ar    1  UNL1        0.0591
      3 C         138.6794  138.8398  166.5959 C.ar    1  UNL1        0.1072
      4 N         137.9542  138.7214  167.9037 N.ar    1  UNL1       -0.1477
      5 N         138.3846  139.5500  169.0776 N.ar    1  UNL1       -0.1421
      6 C         139.5402  140.4971  168.9438 C.ar    1  UNL1        0.1690
      7 C         140.2653  140.6155  167.6361 C.ar    1  UNL1        0.0740
      8 C         139.8349  139.7869  166.4622 C.ar    1  UNL1        0.0359
      9 C         140.5600  139.9053  165.1545 C.ar    1  UNL1        0.0204
     10 C         140.1296  139.0766  163.9805 C.ar    1  UNL1        0.0824
     11 N         140.8548  139.1951  162.6728 N.pl3   1  UNL1       -0.3051
     12 C         140.6098  140.3782  161.7838 C.3     1  UNL1        0.0923
     13 C         141.3349  140.4967  160.4761 C.3     1  UNL1        0.0374
     14 C         142.3051  139.4320  160.0573 C.3     1  UNL1        0.0610
     15 C         142.5501  138.2489  160.9463 C.3     1  UNL1        0.0374
     16 C         141.8250  138.1305  162.2540 C.3     1  UNL1        0.0923
     17 N         143.0303  139.5505  158.7496 N.3     1  UNL1       -0.2715
     18 C         143.9912  140.6801  158.5245 C.3     1  UNL1        0.0896
     19 C         142.7944  138.5394  157.6670 C.3     1  UNL1        0.0896
     20 C         139.9705  141.3257  170.1178 C.2     1  UNL1        0.2635
     21 N         140.3991  140.6575  171.3906 N.am    1  UNL1       -0.3240
     22 O         139.9724  142.8224  170.0190 O.2     1  UNL1       -0.2686
     23 H         140.3978  139.6751  171.4555 H       1  UNL1        0.1453
     24 H         140.6815  141.2013  172.1611 H       1  UNL1        0.1453
     25 C         137.7943  137.9374  161.8076 C.3     1  UNL1        0.2525
     26 O         138.5438  137.3010  162.9403 O.3     1  UNL1       -0.4701
     27 N         141.4208  141.5625  167.5024 N.pl3   1  UNL1       -0.3094
     28 H         142.1569  141.5362  168.1556 H       1  UNL1        0.1523
     29 C         141.4547  142.5497  166.3734 C.ar    1  UNL1        0.0761
     30 C         140.2227  143.3301  166.0224 C.ar    1  UNL1        0.0166
     31 C         140.2566  144.3172  164.8935 C.ar    1  UNL1       -0.0028
     32 C         141.5224  144.5239  164.1156 C.ar    1  UNL1       -0.0195
     33 C         141.5563  145.5110  162.9867 C.3     1  UNL1        0.0311
     34 C         142.7543  143.7434  164.4666 C.ar    1  UNL1        0.0267
     35 C         142.7204  142.7563  165.5956 C.ar    1  UNL1        0.1531
     36 F         143.9523  141.9758  165.9466 F       1  UNL1       -0.2029
@<TRIPOS>BOND
     1    25    26    1
     2    26     1    1
     3     1     2   ar
     4     2     3   ar
     5     3     4   ar
     6     4     5   ar
     7     5     6   ar
     8     6    20    1
     9    20    21   am
    10    20    22    2
    11     6     7   ar
    12     7    27    1
    13    27    29    1
    14    29    30   ar
    15    30    31   ar
    16    31    32   ar
    17    32    33    1
    18    32    34   ar
    19    34    35   ar
    20    35    36    1
    21     7     8   ar
    22     8     9   ar
    23     9    10   ar
    24    10    11    1
    25    11    12    1
    26    12    13    1
    27    13    14    1
    28    14    17    1
    29    17    18    1
    30    17    19    1
    31    14    15    1
    32    15    16    1
    33    10     1   ar
    34    16    11    1
    35     8     3   ar
    36    35    29   ar
    37    21    23    1
    38    21    24    1
    39    27    28    1
@<TRIPOS>MOLECULE
*****
 36 39 0 0 0
SMALL
GASTEIGER

@<TRIPOS>ATOM
      1 C         139.5234  138.1515  162.5457 C.ar    1  UNL1        0.1534
      2 C         139.4196  138.0070  161.0564 C.ar    1  UNL1        0.0591
      3 C         139.1024  139.2021  160.2072 C.ar    1  UNL1        0.1072
      4 N         138.9986  139.0576  158.7177 N.ar    1  UNL1       -0.1477
      5 N         138.6814  140.2527  157.8685 N.ar    1  UNL1       -0.1421
      6 C         138.4681  141.5924  158.5088 C.ar    1  UNL1        0.1690
      7 C         138.5719  141.7368  159.9982 C.ar    1  UNL1        0.0740
      8 C         138.8891  140.5417  160.8474 C.ar    1  UNL1        0.0359
      9 C         138.9929  140.6862  162.3367 C.ar    1  UNL1        0.0204
     10 C         139.3101  139.4911  163.1859 C.ar    1  UNL1        0.0824
     11 N         139.4139  139.6357  164.6754 N.pl3   1  UNL1       -0.3051
     12 C         138.3346  139.0848  165.5594 C.3     1  UNL1        0.0923
     13 C         138.4384  139.2293  167.0488 C.3     1  UNL1        0.0374
     14 C         139.6215  139.9248  167.6542 C.3     1  UNL1        0.0610
     15 C         140.7009  140.4757  166.7702 C.3     1  UNL1        0.0374
     16 C         140.5971  140.3311  165.2807 C.3     1  UNL1        0.0923
     17 N         139.7253  140.0693  169.1436 N.3     1  UNL1       -0.2715
     18 C         138.4892  140.2926  169.9634 C.3     1  UNL1        0.0896
     19 C         141.0653  139.9905  169.8131 C.3     1  UNL1        0.0896
     20 C         138.1509  142.7875  157.6596 C.2     1  UNL1        0.2635
     21 N         136.9022  142.8069  156.8286 N.am    1  UNL1       -0.3240
     22 O         139.0823  143.9631  157.6415 O.2     1  UNL1       -0.2686
     23 H         136.2909  142.0353  156.8405 H       1  UNL1        0.1453
     24 H         136.6940  143.5913  156.2712 H       1  UNL1        0.1453
     25 C         141.1759  136.8490  164.0698 C.3     1  UNL1        0.2525
     26 O         139.8406  136.9564  163.3949 O.3     1  UNL1       -0.4701
     27 N         138.3586  143.0765  160.6384 N.pl3   1  UNL1       -0.3094
     28 H         137.5040  143.5498  160.5164 H       1  UNL1        0.1523
     29 C         139.4473  143.6949  161.4645 C.ar    1  UNL1        0.0761
     30 C         140.8659  143.6664  160.9780 C.ar    1  UNL1        0.0166
     31 C         141.9546  144.2848  161.8040 C.ar    1  UNL1       -0.0028
     32 C         141.6246  144.9317  163.1166 C.ar    1  UNL1       -0.0195
     33 C         142.7133  145.5500  163.9426 C.3     1  UNL1        0.0311
     34 C         140.2060  144.9601  163.6031 C.ar    1  UNL1        0.0267
     35 C         139.1173  144.3417  162.7770 C.ar    1  UNL1        0.1531
     36 F         137.6986  144.3701  163.2635 F       1  UNL1       -0.2029
@<TRIPOS>BOND
     1    25    26    1
     2    26     1    1
     3     1     2   ar
     4     2     3   ar
     5     3     4   ar
     6     4     5   ar
     7     5     6   ar
     8     6    20    1
     9    20    21   am
    10    20    22    2
    11     6     7   ar
    12     7    27    1
    13    27    29    1
    14    29    30   ar
    15    30    31   ar
    16    31    32   ar
    17    32    33    1
    18    32    34   ar
    19    34    35   ar
    20    35    36    1
    21     7     8   ar
    22     8     9   ar
    23     9    10   ar
    24    10    11    1
    25    11    12    1
    26    12    13    1
    27    13    14    1
    28    14    17    1
    29    17    18    1
    30    17    19    1
    31    14    15    1
    32    15    16    1
    33    10     1   ar
    34    16    11    1
    35     8     3   ar
    36    35    29   ar
    37    21    23    1
    38    21    24    1
    39    27    28    1
@<TRIPOS>MOLECULE
*****
 36 39 0 0 0
SMALL
GASTEIGER

@<TRIPOS>ATOM
      1 C         143.8361  142.1089  164.4471 C.ar    1  UNL1        0.1534
      2 C         143.7687  142.6113  165.8588 C.ar    1  UNL1        0.0591
      3 C         142.7926  142.0069  166.8242 C.ar    1  UNL1        0.1072
      4 N         142.7251  142.5094  168.2360 N.ar    1  UNL1       -0.1477
      5 N         141.7490  141.9050  169.2013 N.ar    1  UNL1       -0.1421
      6 C         140.8404  140.7981  168.7549 C.ar    1  UNL1        0.1690
      7 C         140.9079  140.2956  167.3432 C.ar    1  UNL1        0.0740
      8 C         141.8840  140.9001  166.3779 C.ar    1  UNL1        0.0359
      9 C         141.9514  140.3976  164.9662 C.ar    1  UNL1        0.0204
     10 C         142.9275  141.0020  164.0008 C.ar    1  UNL1        0.0824
     11 N         142.9950  140.4995  162.5890 N.pl3   1  UNL1       -0.3051
     12 C         144.0921  139.5628  162.1780 C.3     1  UNL1        0.0923
     13 C         144.1596  139.0603  160.7663 C.3     1  UNL1        0.0374
     14 C         143.1300  139.4945  159.7656 C.3     1  UNL1        0.0610
     15 C         142.0329  140.4312  160.1766 C.3     1  UNL1        0.0374
     16 C         141.9654  140.9337  161.5884 C.3     1  UNL1        0.0923
     17 N         143.1975  138.9920  158.3539 N.3     1  UNL1       -0.2715
     18 C         142.7016  137.6155  158.0233 C.3     1  UNL1        0.0896
     19 C         143.7608  139.8660  157.2729 C.3     1  UNL1        0.0896
     20 C         139.8643  140.1937  169.7203 C.2     1  UNL1        0.2635
     21 N         140.2190  140.0803  171.1734 N.am    1  UNL1       -0.3240
     22 O         138.5335  139.7027  169.2326 O.2     1  UNL1       -0.2686
     23 H         141.0925  140.4026  171.4934 H       1  UNL1        0.1453
     24 H         139.5784  139.6836  171.8070 H       1  UNL1        0.1453
     25 C         144.3731  143.8128  162.5608 C.3     1  UNL1        0.2525
     26 O         144.8122  142.7133  163.4818 O.3     1  UNL1       -0.4701
     27 N         139.9993  139.1888  166.8969 N.pl3   1  UNL1       -0.3094
     28 H         139.8074  138.4356  167.5011 H       1  UNL1        0.1523
     29 C         139.3829  139.2296  165.5299 C.ar    1  UNL1        0.0761
     30 C         138.5141  140.3862  165.1331 C.ar    1  UNL1        0.0166
     31 C         137.8978  140.4270  163.7662 C.ar    1  UNL1       -0.0028
     32 C         138.1503  139.3111  162.7960 C.ar    1  UNL1       -0.0195
     33 C         137.5340  139.3519  161.4291 C.3     1  UNL1        0.0311
     34 C         139.0190  138.1545  163.1928 C.ar    1  UNL1        0.0267
     35 C         139.6354  138.1137  164.5598 C.ar    1  UNL1        0.1531
     36 F         140.5042  136.9571  164.9566 F       1  UNL1       -0.2029
@<TRIPOS>BOND
     1    25    26    1
     2    26     1    1
     3     1     2   ar
     4     2     3   ar
     5     3     4   ar
     6     4     5   ar
     7     5     6   ar
     8     6    20    1
     9    20    21   am
    10    20    22    2
    11     6     7   ar
    12     7    27    1
    13    27    29    1
    14    29    30   ar
    15    30    31   ar
    16    31    32   ar
    17    32    33    1
    18    32    34   ar
    19    34    35   ar
    20    35    36    1
    21     7     8   ar
    22     8     9   ar
    23     9    10   ar
    24    10    11    1
    25    11    12    1
    26    12    13    1
    27    13    14    1
    28    14    17    1
    29    17    18    1
    30    17    19    1
    31    14    15    1
    32    15    16    1
    33    10     1   ar
    34    16    11    1
    35     8     3   ar
    36    35    29   ar
    37    21    23    1
    38    21    24    1
    39    27    28    1
@<TRIPOS>MOLECULE
*****
 36 39 0 0 0
SMALL
GASTEIGER

@<TRIPOS>ATOM
      1 C         144.0961  139.8284  162.8620 C.ar    1  UNL1        0.1534
      2 C         144.3197  139.4844  161.4192 C.ar    1  UNL1        0.0591
      3 C         143.1475  139.2322  160.5179 C.ar    1  UNL1        0.1072
      4 N         143.3711  138.8882  159.0751 N.ar    1  UNL1       -0.1477
      5 N         142.1989  138.6360  158.1738 N.ar    1  UNL1       -0.1421
      6 C         140.8030  138.7278  158.7154 C.ar    1  UNL1        0.1690
      7 C         140.5794  139.0718  160.1581 C.ar    1  UNL1        0.0740
      8 C         141.7517  139.3240  161.0594 C.ar    1  UNL1        0.0359
      9 C         141.5281  139.6680  162.5022 C.ar    1  UNL1        0.0204
     10 C         142.7003  139.9202  163.4035 C.ar    1  UNL1        0.0824
     11 N         142.4766  140.2642  164.8463 N.pl3   1  UNL1       -0.3051
     12 C         142.1082  141.6654  165.2348 C.3     1  UNL1        0.0923
     13 C         141.8846  142.0094  166.6776 C.3     1  UNL1        0.0374
     14 C         142.0293  140.9522  167.7319 C.3     1  UNL1        0.0610
     15 C         142.3977  139.5511  167.3434 C.3     1  UNL1        0.0374
     16 C         142.6214  139.2070  165.9005 C.3     1  UNL1        0.0923
     17 N         141.8057  141.2963  169.1747 N.3     1  UNL1       -0.2715
     18 C         142.3701  142.5663  169.7391 C.3     1  UNL1        0.0896
     19 C         141.0176  140.3703  170.0530 C.3     1  UNL1        0.0896
     20 C         139.6308  138.4756  157.8141 C.2     1  UNL1        0.2635
     21 N         139.5688  137.2183  156.9984 N.am    1  UNL1       -0.3240
     22 O         138.5207  139.4807  157.7285 O.2     1  UNL1       -0.2686
     23 H         140.2974  136.5586  157.0546 H       1  UNL1        0.1453
     24 H         138.7994  137.0528  156.4068 H       1  UNL1        0.1453
     25 C         145.8258  141.4665  163.8986 C.3     1  UNL1        0.2525
     26 O         145.2683  140.0805  163.7633 O.3     1  UNL1       -0.4701
     27 N         139.1836  139.1636  160.6996 N.pl3   1  UNL1       -0.3094
     28 H         138.5588  138.4123  160.5800 H       1  UNL1        0.1523
     29 C         138.7397  140.4003  161.4234 C.ar    1  UNL1        0.0761
     30 C         138.8415  141.7385  160.7535 C.ar    1  UNL1        0.0166
     31 C         138.3977  142.9752  161.4772 C.ar    1  UNL1       -0.0028
     32 C         137.8520  142.8735  162.8708 C.ar    1  UNL1       -0.0195
     33 C         137.4081  144.1102  163.5944 C.3     1  UNL1        0.0311
     34 C         137.7502  141.5353  163.5406 C.ar    1  UNL1        0.0267
     35 C         138.1941  140.2986  162.8169 C.ar    1  UNL1        0.1531
     36 F         138.0923  138.9604  163.4867 F       1  UNL1       -0.2029
@<TRIPOS>BOND
     1    25    26    1
     2    26     1    1
     3     1     2   ar
     4     2     3   ar
     5     3     4   ar
     6     4     5   ar
     7     5     6   ar
     8     6    20    1
     9    20    21   am
    10    20    22    2
    11     6     7   ar
    12     7    27    1
    13    27    29    1
    14    29    30   ar
    15    30    31   ar
    16    31    32   ar
    17    32    33    1
    18    32    34   ar
    19    34    35   ar
    20    35    36    1
    21     7     8   ar
    22     8     9   ar
    23     9    10   ar
    24    10    11    1
    25    11    12    1
    26    12    13    1
    27    13    14    1
    28    14    17    1
    29    17    18    1
    30    17    19    1
    31    14    15    1
    32    15    16    1
    33    10     1   ar
    34    16    11    1
    35     8     3   ar
    36    35    29   ar
    37    21    23    1
    38    21    24    1
    39    27    28    1
@<TRIPOS>MOLECULE
*****
 36 39 0 0 0
SMALL
GASTEIGER

@<TRIPOS>ATOM
      1 C         143.3582  143.3732  164.5340 C.ar    1  UNL1        0.1534
      2 C         143.8685  143.0871  165.9152 C.ar    1  UNL1        0.0591
      3 C         142.9826  142.4065  166.9161 C.ar    1  UNL1        0.1072
      4 N         143.4930  142.1204  168.2973 N.ar    1  UNL1       -0.1477
      5 N         142.6070  141.4398  169.2982 N.ar    1  UNL1       -0.1421
      6 C         141.2106  141.0452  168.9179 C.ar    1  UNL1        0.1690
      7 C         140.7003  141.3313  167.5368 C.ar    1  UNL1        0.0740
      8 C         141.5863  142.0120  166.5359 C.ar    1  UNL1        0.0359
      9 C         141.0759  142.2981  165.1547 C.ar    1  UNL1        0.0204
     10 C         141.9619  142.9787  164.1538 C.ar    1  UNL1        0.0824
     11 N         141.4515  143.2648  162.7726 N.pl3   1  UNL1       -0.3051
     12 C         141.2901  142.1464  161.7860 C.3     1  UNL1        0.0923
     13 C         140.7798  142.4325  160.4049 C.3     1  UNL1        0.0374
     14 C         140.4307  143.8369  160.0102 C.3     1  UNL1        0.0610
     15 C         140.5921  144.9553  160.9967 C.3     1  UNL1        0.0374
     16 C         141.1025  144.6692  162.3779 C.3     1  UNL1        0.0923
     17 N         139.9203  144.1230  158.6290 N.3     1  UNL1       -0.2715
     18 C         140.2670  145.4170  157.9544 C.3     1  UNL1        0.0896
     19 C         139.0633  143.1149  157.9225 C.3     1  UNL1        0.0896
     20 C         140.3247  140.3646  169.9188 C.2     1  UNL1        0.2635
     21 N         140.8346  139.1843  170.6915 N.am    1  UNL1       -0.3240
     22 O         138.9289  140.8642  170.1470 O.2     1  UNL1       -0.2686
     23 H         141.7507  138.8564  170.5417 H       1  UNL1        0.1453
     24 H         140.2531  138.7376  171.3485 H       1  UNL1        0.1453
     25 C         144.7719  143.2886  162.3559 C.3     1  UNL1        0.2525
     26 O         144.2442  144.0538  163.5331 O.3     1  UNL1       -0.4701
     27 N         139.3040  140.9368  167.1565 N.pl3   1  UNL1       -0.3094
     28 H         138.5484  141.1771  167.7400 H       1  UNL1        0.1523
     29 C         139.0589  140.1761  165.8871 C.ar    1  UNL1        0.0761
     30 C         139.6279  138.7987  165.7164 C.ar    1  UNL1        0.0166
     31 C         139.3829  138.0380  164.4471 C.ar    1  UNL1       -0.0028
     32 C         138.5688  138.6546  163.3484 C.ar    1  UNL1       -0.0195
     33 C         138.3238  137.8938  162.0791 C.3     1  UNL1        0.0311
     34 C         137.9998  140.0319  163.5191 C.ar    1  UNL1        0.0267
     35 C         138.2449  140.7927  164.7885 C.ar    1  UNL1        0.1531
     36 F         137.6759  142.1700  164.9591 F       1  UNL1       -0.2029
@<TRIPOS>BOND
     1    25    26    1
     2    26     1    1
     3     1     2   ar
     4     2     3   ar
     5     3     4   ar
     6     4     5   ar
     7     5     6   ar
     8     6    20    1
     9    20    21   am
    10    20    22    2
    11     6     7   ar
    12     7    27    1
    13    27    29    1
    14    29    30   ar
    15    30    31   ar
    16    31    32   ar
    17    32    33    1
    18    32    34   ar
    19    34    35   ar
    20    35    36    1
    21     7     8   ar
    22     8     9   ar
    23     9    10   ar
    24    10    11    1
    25    11    12    1
    26    12    13    1
    27    13    14    1
    28    14    17    1
    29    17    18    1
    30    17    19    1
    31    14    15    1
    32    15    16    1
    33    10     1   ar
    34    16    11    1
    35     8     3   ar
    36    35    29   ar
    37    21    23    1
    38    21    24    1
    39    27    28    1
@<TRIPOS>MOLECULE
*****
 36 39 0 0 0
SMALL
GASTEIGER

@<TRIPOS>ATOM
      1 C         138.0308  140.8837  162.3275 C.ar    1  UNL1        0.1534
      2 C         137.7620  140.6745  160.8667 C.ar    1  UNL1        0.0591
      3 C         138.7360  139.9012  160.0282 C.ar    1  UNL1        0.1072
      4 N         138.4673  139.6920  158.5673 N.ar    1  UNL1       -0.1477
      5 N         139.4413  138.9186  157.7287 N.ar    1  UNL1       -0.1421
      6 C         140.6841  138.3544  158.3510 C.ar    1  UNL1        0.1690
      7 C         140.9528  138.5636  159.8118 C.ar    1  UNL1        0.0740
      8 C         139.9788  139.3370  160.6504 C.ar    1  UNL1        0.0359
      9 C         140.2475  139.5462  162.1112 C.ar    1  UNL1        0.0204
     10 C         139.2735  140.3195  162.9498 C.ar    1  UNL1        0.0824
     11 N         139.5423  140.5287  164.4106 N.pl3   1  UNL1       -0.3051
     12 C         140.4379  141.6466  164.8559 C.3     1  UNL1        0.0923
     13 C         140.7067  141.8558  166.3167 C.3     1  UNL1        0.0374
     14 C         140.0799  140.9471  167.3323 C.3     1  UNL1        0.0610
     15 C         139.1843  139.8292  166.8870 C.3     1  UNL1        0.0374
     16 C         138.9155  139.6200  165.4262 C.3     1  UNL1        0.0923
     17 N         140.3487  141.1563  168.7931 N.3     1  UNL1       -0.2715
     18 C         140.6584  139.9826  169.6743 C.3     1  UNL1        0.0896
     19 C         140.3078  142.5391  169.3726 C.3     1  UNL1        0.0896
     20 C         141.6581  137.5810  157.5125 C.2     1  UNL1        0.2635
     21 N         141.1604  136.5469  156.5465 N.am    1  UNL1       -0.3240
     22 O         143.1297  137.8417  157.6398 O.2     1  UNL1       -0.2686
     23 H         140.1945  136.3758  156.4629 H       1  UNL1        0.1453
     24 H         141.7996  136.0393  155.9961 H       1  UNL1        0.1453
     25 C         137.3385  143.0885  163.5147 C.3     1  UNL1        0.2525
     26 O         137.0567  141.6571  163.1661 O.3     1  UNL1       -0.4701
     27 N         142.1955  137.9994  160.4341 N.pl3   1  UNL1       -0.3094
     28 H         142.4243  137.0508  160.3036 H       1  UNL1        0.1523
     29 C         143.0897  138.8805  161.2552 C.ar    1  UNL1        0.0761
     30 C         143.4675  138.4750  162.6490 C.ar    1  UNL1        0.0166
     31 C         144.3617  139.3561  163.4701 C.ar    1  UNL1       -0.0028
     32 C         144.8781  140.6427  162.8973 C.ar    1  UNL1       -0.0195
     33 C         145.7722  141.5237  163.7184 C.3     1  UNL1        0.0311
     34 C         144.5003  141.0482  161.5035 C.ar    1  UNL1        0.0267
     35 C         143.6061  140.1671  160.6824 C.ar    1  UNL1        0.1531
     36 F         143.2283  140.5726  159.2885 F       1  UNL1       -0.2029
@<TRIPOS>BOND
     1    25    26    1
     2    26     1    1
     3     1     2   ar
     4     2     3   ar
     5     3     4   ar
     6     4     5   ar
     7     5     6   ar
     8     6    20    1
     9    20    21   am
    10    20    22    2
    11     6     7   ar
    12     7    27    1
    13    27    29    1
    14    29    30   ar
    15    30    31   ar
    16    31    32   ar
    17    32    33    1
    18    32    34   ar
    19    34    35   ar
    20    35    36    1
    21     7     8   ar
    22     8     9   ar
    23     9    10   ar
    24    10    11    1
    25    11    12    1
    26    12    13    1
    27    13    14    1
    28    14    17    1
    29    17    18    1
    30    17    19    1
    31    14    15    1
    32    15    16    1
    33    10     1   ar
    34    16    11    1
    35     8     3   ar
    36    35    29   ar
    37    21    23    1
    38    21    24    1
    39    27    28    1
@<TRIPOS>MOLECULE
*****
 36 39 0 0 0
SMALL
GASTEIGER

@<TRIPOS>ATOM
      1 C         142.8542  138.5033  163.2784 C.ar    1  UNL1        0.1534
      2 C         143.5291  138.3315  164.6069 C.ar    1  UNL1        0.0591
      3 C         142.8679  138.8369  165.8549 C.ar    1  UNL1        0.1072
      4 N         143.5428  138.6651  167.1835 N.ar    1  UNL1       -0.1477
      5 N         142.8817  139.1706  168.4315 N.ar    1  UNL1       -0.1421
      6 C         141.5456  139.8478  168.3509 C.ar    1  UNL1        0.1690
      7 C         140.8708  140.0195  167.0224 C.ar    1  UNL1        0.0740
      8 C         141.5319  139.5141  165.7744 C.ar    1  UNL1        0.0359
      9 C         140.8571  139.6859  164.4458 C.ar    1  UNL1        0.0204
     10 C         141.5182  139.1805  163.1979 C.ar    1  UNL1        0.0824
     11 N         140.8433  139.3523  161.8693 N.pl3   1  UNL1       -0.3051
     12 C         140.8686  140.6854  161.1821 C.3     1  UNL1        0.0923
     13 C         140.1937  140.8572  159.8535 C.3     1  UNL1        0.0374
     14 C         139.4935  139.6959  159.2122 C.3     1  UNL1        0.0610
     15 C         139.4682  138.3629  159.8994 C.3     1  UNL1        0.0374
     16 C         140.1431  138.1911  161.2280 C.3     1  UNL1        0.0923
     17 N         138.8186  139.8678  157.8837 N.3     1  UNL1       -0.2715
     18 C         137.6819  140.8358  157.7395 C.3     1  UNL1        0.0896
     19 C         139.2805  139.0716  156.6994 C.3     1  UNL1        0.0896
     20 C         140.8845  140.3532  169.5989 C.2     1  UNL1        0.2635
     21 N         140.6705  139.4293  170.7611 N.am    1  UNL1       -0.3240
     22 O         140.4374  141.7824  169.6847 O.2     1  UNL1       -0.2686
     23 H         140.9640  138.4912  170.7048 H       1  UNL1        0.1453
     24 H         140.2366  139.7610  171.5802 H       1  UNL1        0.1453
     25 C         144.1924  138.9587  161.0986 C.3     1  UNL1        0.2525
     26 O         143.5153  137.9979  162.0304 O.3     1  UNL1       -0.4701
     27 N         139.5348  140.6967  166.9418 N.pl3   1  UNL1       -0.3094
     28 H         138.8124  140.4351  167.5574 H       1  UNL1        0.1523
     29 C         139.2994  141.7726  165.9233 C.ar    1  UNL1        0.0761
     30 C         140.0618  143.0619  166.0045 C.ar    1  UNL1        0.0166
     31 C         139.8265  144.1377  164.9861 C.ar    1  UNL1       -0.0028
     32 C         138.8288  143.9243  163.8865 C.ar    1  UNL1       -0.0195
     33 C         138.5934  145.0001  162.8681 C.3     1  UNL1        0.0311
     34 C         138.0664  142.6350  163.8053 C.ar    1  UNL1        0.0267
     35 C         138.3018  141.5591  164.8238 C.ar    1  UNL1        0.1531
     36 F         137.5394  140.2698  164.7426 F       1  UNL1       -0.2029
@<TRIPOS>BOND
     1    25    26    1
     2    26     1    1
     3     1     2   ar
     4     2     3   ar
     5     3     4   ar
     6     4     5   ar
     7     5     6   ar
     8     6    20    1
     9    20    21   am
    10    20    22    2
    11     6     7   ar
    12     7    27    1
    13    27    29    1
    14    29    30   ar
    15    30    31   ar
    16    31    32   ar
    17    32    33    1
    18    32    34   ar
    19    34    35   ar
    20    35    36    1
    21     7     8   ar
    22     8     9   ar
    23     9    10   ar
    24    10    11    1
    25    11    12    1
    26    12    13    1
    27    13    14    1
    28    14    17    1
    29    17    18    1
    30    17    19    1
    31    14    15    1
    32    15    16    1
    33    10     1   ar
    34    16    11    1
    35     8     3   ar
    36    35    29   ar
    37    21    23    1
    38    21    24    1
    39    27    28    1
@<TRIPOS>MOLECULE
*****
 36 39 0 0 0
SMALL
GASTEIGER

@<TRIPOS>ATOM
      1 C         139.1441  143.4066  164.0057 C.ar    1  UNL1        0.1534
      2 C         139.4459  143.7955  165.4226 C.ar    1  UNL1        0.0591
      3 C         140.0074  142.7819  166.3752 C.ar    1  UNL1        0.1072
      4 N         140.3092  143.1708  167.7921 N.ar    1  UNL1       -0.1477
      5 N         140.8707  142.1572  168.7447 N.ar    1  UNL1       -0.1421
      6 C         141.1304  140.7547  168.2803 C.ar    1  UNL1        0.1690
      7 C         140.8286  140.3658  166.8634 C.ar    1  UNL1        0.0740
      8 C         140.2671  141.3794  165.9108 C.ar    1  UNL1        0.0359
      9 C         139.9653  140.9906  164.4939 C.ar    1  UNL1        0.0204
     10 C         139.4038  142.0042  163.5414 C.ar    1  UNL1        0.0824
     11 N         139.1019  141.6152  162.1244 N.pl3   1  UNL1       -0.3051
     12 C         137.9199  140.7427  161.8217 C.3     1  UNL1        0.0923
     13 C         137.6181  140.3538  160.4048 C.3     1  UNL1        0.0374
     14 C         138.4983  140.8374  159.2906 C.3     1  UNL1        0.0610
     15 C         139.6803  141.7099  159.5933 C.3     1  UNL1        0.0374
     16 C         139.9821  142.0988  161.0102 C.3     1  UNL1        0.0923
     17 N         138.1964  140.4484  157.8737 N.3     1  UNL1       -0.2715
     18 C         136.9855  141.0047  157.1850 C.3     1  UNL1        0.0896
     19 C         139.1055  139.5032  157.1456 C.3     1  UNL1        0.0896
     20 C         141.6919  139.7411  169.2328 C.2     1  UNL1        0.2635
     21 N         140.9476  139.4002  170.4898 N.am    1  UNL1       -0.3240
     22 O         142.9976  139.0685  168.9285 O.2     1  UNL1       -0.2686
     23 H         140.0906  139.8417  170.6896 H       1  UNL1        0.1453
     24 H         141.3161  138.7349  171.1150 H       1  UNL1        0.1453
     25 C         139.4819  145.4526  162.4406 C.3     1  UNL1        0.2525
     26 O         138.5826  144.4202  163.0532 O.3     1  UNL1       -0.4701
     27 N         141.0883  138.9634  166.3991 N.pl3   1  UNL1       -0.3094
     28 H         140.7724  138.2008  166.9356 H       1  UNL1        0.1523
     29 C         141.8292  138.7228  165.1172 C.ar    1  UNL1        0.0761
     30 C         143.1978  139.3049  164.9214 C.ar    1  UNL1        0.0166
     31 C         143.9387  139.0644  163.6396 C.ar    1  UNL1       -0.0028
     32 C         143.3112  138.2417  162.5535 C.ar    1  UNL1       -0.0195
     33 C         144.0522  138.0012  161.2717 C.3     1  UNL1        0.0311
     34 C         141.9427  137.6597  162.7493 C.ar    1  UNL1        0.0267
     35 C         141.2017  137.9002  164.0312 C.ar    1  UNL1        0.1531
     36 F         139.8332  137.3181  164.2270 F       1  UNL1       -0.2029
@<TRIPOS>BOND
     1    25    26    1
     2    26     1    1
     3     1     2   ar
     4     2     3   ar
     5     3     4   ar
     6     4     5   ar
     7     5     6   ar
     8     6    20    1
     9    20    21   am
    10    20    22    2
    11     6     7   ar
    12     7    27    1
    13    27    29    1
    14    29    30   ar
    15    30    31   ar
    16    31    32   ar
    17    32    33    1
    18    32    34   ar
    19    34    35   ar
    20    35    36    1
    21     7     8   ar
    22     8     9   ar
    23     9    10   ar
    24    10    11    1
    25    11    12    1
    26    12    13    1
    27    13    14    1
    28    14    17    1
    29    17    18    1
    30    17    19    1
    31    14    15    1
    32    15    16    1
    33    10     1   ar
    34    16    11    1
    35     8     3   ar
    36    35    29   ar
    37    21    23    1
    38    21    24    1
    39    27    28    1
@<TRIPOS>MOLECULE
*****
 36 39 0 0 0
SMALL
GASTEIGER

@<TRIPOS>ATOM
      1 C         139.0725  138.6518  162.9421 C.ar    1  UNL1        0.1534
      2 C         138.3115  138.5756  164.2324 C.ar    1  UNL1        0.0591
      3 C         138.9601  139.0117  165.5127 C.ar    1  UNL1        0.1072
      4 N         138.1990  138.9355  166.8030 N.ar    1  UNL1       -0.1477
      5 N         138.8476  139.3716  168.0833 N.ar    1  UNL1       -0.1421
      6 C         140.2574  139.8839  168.0732 C.ar    1  UNL1        0.1690
      7 C         141.0185  139.9601  166.7829 C.ar    1  UNL1        0.0740
      8 C         140.3698  139.5240  165.5026 C.ar    1  UNL1        0.0359
      9 C         141.1309  139.6002  164.2123 C.ar    1  UNL1        0.0204
     10 C         140.4823  139.1641  162.9321 C.ar    1  UNL1        0.0824
     11 N         141.2434  139.2403  161.6417 N.pl3   1  UNL1       -0.3051
     12 C         141.9064  138.0138  161.0885 C.3     1  UNL1        0.0923
     13 C         142.6676  138.0900  159.7983 C.3     1  UNL1        0.0374
     14 C         142.7657  139.3927  159.0611 C.3     1  UNL1        0.0610
     15 C         142.1027  140.6192  159.6143 C.3     1  UNL1        0.0374
     16 C         141.3415  140.5430  160.9047 C.3     1  UNL1        0.0923
     17 N         143.5268  139.4689  157.7709 N.3     1  UNL1       -0.2715
     18 C         143.3409  138.4082  156.7267 C.3     1  UNL1        0.0896
     19 C         144.4738  140.6058  157.5248 C.3     1  UNL1        0.0896
     20 C         140.9061  140.3201  169.3534 C.2     1  UNL1        0.2635
     21 N         140.7840  139.4702  170.5835 N.am    1  UNL1       -0.3240
     22 O         141.6767  141.6059  169.4037 O.2     1  UNL1       -0.2686
     23 H         140.2782  138.6262  170.5505 H       1  UNL1        0.1453
     24 H         141.2098  139.7565  171.4238 H       1  UNL1        0.1453
     25 C         137.6418  139.2002  160.8440 C.3     1  UNL1        0.2525
     26 O         138.4239  138.2156  161.6619 O.3     1  UNL1       -0.4701
     27 N         142.4282  140.4725  166.7728 N.pl3   1  UNL1       -0.3094
     28 H         143.0928  140.0972  167.3947 H       1  UNL1        0.1523
     29 C         142.8254  141.5566  165.8153 C.ar    1  UNL1        0.0761
     30 C         144.0510  141.3949  164.9657 C.ar    1  UNL1        0.0166
     31 C         144.4483  142.4790  164.0082 C.ar    1  UNL1       -0.0028
     32 C         143.6199  143.7249  163.9002 C.ar    1  UNL1       -0.0195
     33 C         144.0171  144.8090  162.9426 C.3     1  UNL1        0.0311
     34 C         142.3943  143.8866  164.7497 C.ar    1  UNL1        0.0267
     35 C         141.9971  142.8025  165.7073 C.ar    1  UNL1        0.1531
     36 F         140.7715  142.9642  166.5569 F       1  UNL1       -0.2029
@<TRIPOS>BOND
     1    25    26    1
     2    26     1    1
     3     1     2   ar
     4     2     3   ar
     5     3     4   ar
     6     4     5   ar
     7     5     6   ar
     8     6    20    1
     9    20    21   am
    10    20    22    2
    11     6     7   ar
    12     7    27    1
    13    27    29    1
    14    29    30   ar
    15    30    31   ar
    16    31    32   ar
    17    32    33    1
    18    32    34   ar
    19    34    35   ar
    20    35    36    1
    21     7     8   ar
    22     8     9   ar
    23     9    10   ar
    24    10    11    1
    25    11    12    1
    26    12    13    1
    27    13    14    1
    28    14    17    1
    29    17    18    1
    30    17    19    1
    31    14    15    1
    32    15    16    1
    33    10     1   ar
    34    16    11    1
    35     8     3   ar
    36    35    29   ar
    37    21    23    1
    38    21    24    1
    39    27    28    1
