@<TRIPOS>MOLECULE
*****
 33 35 0 0 0
SMALL
GASTEIGER

@<TRIPOS>ATOM
      1 S         142.9093  139.1893  161.2575 S.O2    1  UNL1        0.0768
      2 O         144.3988  139.0825  161.1155 O.2     1  UNL1       -0.1498
      3 O         141.4199  139.2960  161.3996 O.2     1  UNL1       -0.1498
      4 N         142.5919  138.3044  157.4019 N.am    1  UNL1       -0.2671
      5 C         142.7220  138.1418  158.8873 C.2     1  UNL1        0.3231
      6 O         142.7948  136.7693  159.4882 O.2     1  UNL1       -0.2509
      7 N         142.7793  139.3518  159.7720 N.am    1  UNL1       -0.1690
      8 H         142.5441  139.2052  157.0075 H       1  UNL1        0.1565
      9 H         142.7315  140.2526  159.3777 H       1  UNL1        0.1781
     10 C         142.4201  134.6744  154.7478 C.ar    1  UNL1        0.0480
     11 C         141.1508  135.3099  155.2325 C.ar    1  UNL1        0.0158
     12 C         141.2081  136.5198  156.1172 C.ar    1  UNL1        0.0160
     13 C         142.5347  137.0944  156.5172 C.ar    1  UNL1        0.0517
     14 C         143.8040  136.4590  156.0324 C.ar    1  UNL1        0.0160
     15 C         143.7467  135.2490  155.1477 C.ar    1  UNL1        0.0158
     16 C         141.5469  133.4933  152.6048 C.3     1  UNL1        0.1122
     17 N         142.3628  133.4645  153.8631 N.pl3   1  UNL1       -0.3041
     18 C         143.1215  132.2256  154.2367 C.3     1  UNL1        0.1122
     19 C         143.0394  139.0267  162.7430 C.ar    1  UNL1        0.1255
     20 C         144.2793  139.4982  163.4434 C.ar    1  UNL1        0.0233
     21 C         144.4093  139.3356  164.9289 C.ar    1  UNL1        0.0383
     22 C         143.2995  138.7016  165.7140 C.ar    1  UNL1        0.1386
     23 C         142.0597  138.2302  165.0136 C.ar    1  UNL1        0.0383
     24 C         141.9296  138.3927  163.5281 C.ar    1  UNL1        0.0233
     25 O         143.4295  138.5391  167.1994 O.3     1  UNL1       -0.4754
     26 C         142.6801  139.4537  168.1225 C.3     1  UNL1        0.2068
     27 C         142.3457  140.8495  167.6868 C.3     1  UNL1        0.0646
     28 C         140.9255  141.3298  167.7336 C.3     1  UNL1        0.0759
     29 N         139.8609  140.5985  166.9709 N.3     1  UNL1       -0.2726
     30 C         139.0091  139.4814  167.4970 C.3     1  UNL1        0.0721
     31 C         138.0829  139.0483  166.3995 C.3     1  UNL1        0.0188
     32 C         138.3622  139.8978  165.1951 C.3     1  UNL1        0.0188
     33 C         139.4610  140.8558  165.5483 C.3     1  UNL1        0.0721
@<TRIPOS>BOND
     1    16    17    1
     2    17    18    1
     3    17    10    1
     4    10    11   ar
     5    11    12   ar
     6    12    13   ar
     7    13     4    1
     8     4     5   am
     9     5     6    2
    10     5     7   am
    11     7     1    1
    12     1     2    2
    13     1     3    2
    14     1    19    1
    15    19    20   ar
    16    20    21   ar
    17    21    22   ar
    18    22    25    1
    19    25    26    1
    20    26    27    1
    21    27    28    1
    22    28    29    1
    23    29    30    1
    24    30    31    1
    25    31    32    1
    26    32    33    1
    27    22    23   ar
    28    23    24   ar
    29    13    14   ar
    30    14    15   ar
    31    15    10   ar
    32    24    19   ar
    33    33    29    1
    34     4     8    1
    35     7     9    1
@<TRIPOS>MOLECULE
*****
 33 35 0 0 0
SMALL
GASTEIGER

@<TRIPOS>ATOM
      1 S         138.9210  138.6271  161.8544 S.O2    1  UNL1        0.0768
      2 O         137.4228  138.6333  161.7821 O.2     1  UNL1       -0.1498
      3 O         140.4192  138.6208  161.9268 O.2     1  UNL1       -0.1498
      4 N         138.7054  139.5109  157.9915 N.am    1  UNL1       -0.2671
      5 C         138.6339  139.6496  159.4833 C.2     1  UNL1        0.3231
      6 O         138.2037  140.9495  160.0960 O.2     1  UNL1       -0.2509
      7 N         138.9925  138.4884  160.3625 N.am    1  UNL1       -0.1690
      8 H         138.9877  138.6578  157.5894 H       1  UNL1        0.1565
      9 H         139.2748  137.6352  159.9604 H       1  UNL1        0.1781
     10 C         137.6295  142.9945  155.3539 C.ar    1  UNL1        0.0480
     11 C         136.5872  141.9788  155.7171 C.ar    1  UNL1        0.0158
     12 C         136.9458  140.8176  156.5963 C.ar    1  UNL1        0.0160
     13 C         138.3467  140.6721  157.1123 C.ar    1  UNL1        0.0517
     14 C         139.3890  141.6878  156.7491 C.ar    1  UNL1        0.0160
     15 C         139.0304  142.8490  155.8699 C.ar    1  UNL1        0.0158
     16 C         137.7073  145.5416  154.8474 C.3     1  UNL1        0.1122
     17 N         137.2709  144.1557  154.4747 N.pl3   1  UNL1       -0.3041
     18 C         136.4758  143.9311  153.2228 C.3     1  UNL1        0.1122
     19 C         138.8495  138.7657  163.3463 C.ar    1  UNL1        0.1255
     20 C         139.2594  137.6222  164.2263 C.ar    1  UNL1        0.0233
     21 C         139.1879  137.7609  165.7182 C.ar    1  UNL1        0.0383
     22 C         138.7066  139.0431  166.3300 C.ar    1  UNL1        0.1386
     23 C         138.2968  140.1866  165.4501 C.ar    1  UNL1        0.0383
     24 C         138.3682  140.0479  163.9581 C.ar    1  UNL1        0.0233
     25 O         138.6352  139.1817  167.8219 O.3     1  UNL1       -0.4754
     26 C         139.4612  140.2220  168.5189 C.3     1  UNL1        0.2068
     27 C         140.8352  139.8805  169.0142 C.3     1  UNL1        0.0646
     28 C         142.0432  140.3730  168.2738 C.3     1  UNL1        0.0759
     29 N         142.2488  139.9935  166.8372 N.3     1  UNL1       -0.2726
     30 C         142.7786  138.6815  166.3390 C.3     1  UNL1        0.0721
     31 C         142.8180  138.7364  164.8406 C.3     1  UNL1        0.0188
     32 C         142.3124  140.0823  164.4126 C.3     1  UNL1        0.0188
     33 C         141.9606  140.8591  165.6466 C.3     1  UNL1        0.0721
@<TRIPOS>BOND
     1    16    17    1
     2    17    18    1
     3    17    10    1
     4    10    11   ar
     5    11    12   ar
     6    12    13   ar
     7    13     4    1
     8     4     5   am
     9     5     6    2
    10     5     7   am
    11     7     1    1
    12     1     2    2
    13     1     3    2
    14     1    19    1
    15    19    20   ar
    16    20    21   ar
    17    21    22   ar
    18    22    25    1
    19    25    26    1
    20    26    27    1
    21    27    28    1
    22    28    29    1
    23    29    30    1
    24    30    31    1
    25    31    32    1
    26    32    33    1
    27    22    23   ar
    28    23    24   ar
    29    13    14   ar
    30    14    15   ar
    31    15    10   ar
    32    24    19   ar
    33    33    29    1
    34     4     8    1
    35     7     9    1
@<TRIPOS>MOLECULE
*****
 33 35 0 0 0
SMALL
GASTEIGER

@<TRIPOS>ATOM
      1 S         141.9812  144.4021  163.1026 S.O2    1  UNL1        0.0768
      2 O         143.0098  143.3572  162.7864 O.2     1  UNL1       -0.1498
      3 O         140.9526  145.4470  163.4188 O.2     1  UNL1       -0.1498
      4 N         141.8135  145.4759  159.2857 N.am    1  UNL1       -0.2671
      5 C         141.5025  144.7788  160.5769 C.2     1  UNL1        0.3231
      6 O         140.4017  143.7614  160.6339 O.2     1  UNL1       -0.2509
      7 N         142.2923  145.0992  161.8113 N.am    1  UNL1       -0.1690
      8 H         142.5360  146.1436  159.2483 H       1  UNL1        0.1565
      9 H         143.0147  145.7669  161.7740 H       1  UNL1        0.1781
     10 C         139.4442  144.5149  155.5826 C.ar    1  UNL1        0.0480
     11 C         140.2220  143.4361  156.2763 C.ar    1  UNL1        0.0158
     12 C         141.0117  143.7564  157.5107 C.ar    1  UNL1        0.0160
     13 C         141.0237  145.1555  158.0513 C.ar    1  UNL1        0.0517
     14 C         140.2460  146.2343  157.3576 C.ar    1  UNL1        0.0160
     15 C         139.4562  145.9140  156.1232 C.ar    1  UNL1        0.0158
     16 C         139.3638  143.8837  153.0636 C.3     1  UNL1        0.1122
     17 N         138.6545  144.1946  154.3482 N.pl3   1  UNL1       -0.3041
     18 C         137.1554  144.1852  154.3984 C.3     1  UNL1        0.1122
     19 C         141.6701  143.7050  164.3938 C.ar    1  UNL1        0.1255
     20 C         140.3102  143.8425  165.0117 C.ar    1  UNL1        0.0233
     21 C         139.9991  143.1455  166.3029 C.ar    1  UNL1        0.0383
     22 C         141.0479  142.3110  166.9764 C.ar    1  UNL1        0.1386
     23 C         142.4078  142.1735  166.3586 C.ar    1  UNL1        0.0383
     24 C         142.7190  142.8705  165.0673 C.ar    1  UNL1        0.0233
     25 O         140.7369  141.6140  168.2676 O.3     1  UNL1       -0.4754
     26 C         140.3174  140.1738  168.2604 C.3     1  UNL1        0.2068
     27 C         139.1538  139.7357  167.4214 C.3     1  UNL1        0.0646
     28 C         139.3917  139.0614  166.1028 C.3     1  UNL1        0.0759
     29 N         139.3466  139.8594  164.8334 N.3     1  UNL1       -0.2726
     30 C         140.4833  140.0555  163.8744 C.3     1  UNL1        0.0721
     31 C         139.9962  140.9186  162.7485 C.3     1  UNL1        0.0188
     32 C         138.5584  141.2559  163.0116 C.3     1  UNL1        0.0188
     33 C         138.1570  140.6013  164.3001 C.3     1  UNL1        0.0721
@<TRIPOS>BOND
     1    16    17    1
     2    17    18    1
     3    17    10    1
     4    10    11   ar
     5    11    12   ar
     6    12    13   ar
     7    13     4    1
     8     4     5   am
     9     5     6    2
    10     5     7   am
    11     7     1    1
    12     1     2    2
    13     1     3    2
    14     1    19    1
    15    19    20   ar
    16    20    21   ar
    17    21    22   ar
    18    22    25    1
    19    25    26    1
    20    26    27    1
    21    27    28    1
    22    28    29    1
    23    29    30    1
    24    30    31    1
    25    31    32    1
    26    32    33    1
    27    22    23   ar
    28    23    24   ar
    29    13    14   ar
    30    14    15   ar
    31    15    10   ar
    32    24    19   ar
    33    33    29    1
    34     4     8    1
    35     7     9    1
@<TRIPOS>MOLECULE
*****
 33 35 0 0 0
SMALL
GASTEIGER

@<TRIPOS>ATOM
      1 S         138.8161  138.2086  162.2329 S.O2    1  UNL1        0.0768
      2 O         137.7120  139.1868  161.9610 O.2     1  UNL1       -0.1498
      3 O         139.9203  137.2304  162.5047 O.2     1  UNL1       -0.1498
      4 N         140.0696  138.3391  158.4696 N.am    1  UNL1       -0.2671
      5 C         139.9611  138.6249  159.9381 C.2     1  UNL1        0.3231
      6 O         140.8893  139.6128  160.5805 O.2     1  UNL1       -0.2509
      7 N         138.9245  137.9228  160.7643 N.am    1  UNL1       -0.1690
      8 H         139.4604  137.6907  158.0480 H       1  UNL1        0.1565
      9 H         138.3154  137.2744  160.3427 H       1  UNL1        0.1781
     10 C         143.1793  140.4454  155.9911 C.ar    1  UNL1        0.0480
     11 C         141.8708  141.1182  156.2828 C.ar    1  UNL1        0.0158
     12 C         140.8342  140.4161  157.1090 C.ar    1  UNL1        0.0160
     13 C         141.1061  139.0412  157.6435 C.ar    1  UNL1        0.0517
     14 C         142.4147  138.3684  157.3518 C.ar    1  UNL1        0.0160
     15 C         143.4512  139.0705  156.5256 C.ar    1  UNL1        0.0158
     16 C         143.7980  142.1535  154.1338 C.3     1  UNL1        0.1122
     17 N         144.2159  141.1475  155.1649 N.pl3   1  UNL1       -0.3041
     18 C         145.6704  140.8436  155.3699 C.3     1  UNL1        0.1122
     19 C         138.7077  138.4944  163.7014 C.ar    1  UNL1        0.1255
     20 C         138.8584  137.3810  164.6953 C.ar    1  UNL1        0.0233
     21 C         138.7500  137.6668  166.1638 C.ar    1  UNL1        0.0383
     22 C         138.4910  139.0659  166.6385 C.ar    1  UNL1        0.1386
     23 C         138.3404  140.1792  165.6447 C.ar    1  UNL1        0.0383
     24 C         138.4487  139.8935  164.1761 C.ar    1  UNL1        0.0233
     25 O         138.3826  139.3517  168.1070 O.3     1  UNL1       -0.4754
     26 C         139.4003  140.2259  168.7780 C.3     1  UNL1        0.2068
     27 C         140.8632  139.9822  168.5536 C.3     1  UNL1        0.0646
     28 C         141.6058  140.7760  167.5200 C.3     1  UNL1        0.0759
     29 N         141.9247  140.1619  166.1890 N.3     1  UNL1       -0.2726
     30 C         141.9581  140.8795  164.8722 C.3     1  UNL1        0.0721
     31 C         142.3203  139.8836  163.8106 C.3     1  UNL1        0.0188
     32 C         142.5108  138.5505  164.4714 C.3     1  UNL1        0.0188
     33 C         142.2663  138.7225  165.9413 C.3     1  UNL1        0.0721
@<TRIPOS>BOND
     1    16    17    1
     2    17    18    1
     3    17    10    1
     4    10    11   ar
     5    11    12   ar
     6    12    13   ar
     7    13     4    1
     8     4     5   am
     9     5     6    2
    10     5     7   am
    11     7     1    1
    12     1     2    2
    13     1     3    2
    14     1    19    1
    15    19    20   ar
    16    20    21   ar
    17    21    22   ar
    18    22    25    1
    19    25    26    1
    20    26    27    1
    21    27    28    1
    22    28    29    1
    23    29    30    1
    24    30    31    1
    25    31    32    1
    26    32    33    1
    27    22    23   ar
    28    23    24   ar
    29    13    14   ar
    30    14    15   ar
    31    15    10   ar
    32    24    19   ar
    33    33    29    1
    34     4     8    1
    35     7     9    1
@<TRIPOS>MOLECULE
*****
 33 35 0 0 0
SMALL
GASTEIGER

@<TRIPOS>ATOM
      1 S         139.8992  139.0239  161.3405 S.O2    1  UNL1        0.0768
      2 O         139.8668  140.4030  160.7516 O.2     1  UNL1       -0.1498
      3 O         139.9316  137.6448  161.9294 O.2     1  UNL1       -0.1498
      4 N         138.8137  140.3788  164.9092 N.am    1  UNL1       -0.2671
      5 C         139.6726  139.9131  163.7712 C.2     1  UNL1        0.3231
      6 O         141.1641  139.8708  163.9256 O.2     1  UNL1       -0.2509
      7 N         139.0402  139.4896  162.4786 N.am    1  UNL1       -0.1690
      8 H         137.8348  140.4066  164.8079 H       1  UNL1        0.1565
      9 H         138.0613  139.5174  162.3772 H       1  UNL1        0.1781
     10 C         140.7110  141.6492  168.7869 C.ar    1  UNL1        0.0480
     11 C         140.0587  140.3030  168.6767 C.ar    1  UNL1        0.0158
     12 C         139.4262  139.8795  167.3842 C.ar    1  UNL1        0.0160
     13 C         139.4461  140.8023  166.2018 C.ar    1  UNL1        0.0517
     14 C         140.0984  142.1485  166.3120 C.ar    1  UNL1        0.0160
     15 C         140.7309  142.5719  167.6045 C.ar    1  UNL1        0.0158
     16 C         140.7139  141.6854  171.3847 C.3     1  UNL1        0.1122
     17 N         141.3435  142.0726  170.0795 N.pl3   1  UNL1       -0.3041
     18 C         142.6054  142.8832  170.0668 C.3     1  UNL1        0.1122
     19 C         140.7582  138.5581  160.2025 C.ar    1  UNL1        0.1255
     20 C         140.2616  138.6739  158.7917 C.ar    1  UNL1        0.0233
     21 C         141.1206  138.2081  157.6537 C.ar    1  UNL1        0.0383
     22 C         142.4762  137.6266  157.9263 C.ar    1  UNL1        0.1386
     23 C         142.9727  137.5109  159.3370 C.ar    1  UNL1        0.0383
     24 C         142.1137  137.9766  160.4751 C.ar    1  UNL1        0.0233
     25 O         143.3351  137.1608  156.7883 O.3     1  UNL1       -0.4754
     26 C         142.7106  136.8208  155.4675 C.3     1  UNL1        0.2068
     27 C         142.7994  135.4218  154.9339 C.3     1  UNL1        0.0646
     28 C         142.4207  134.2613  155.8055 C.3     1  UNL1        0.0759
     29 N         143.4879  133.3977  156.4101 N.3     1  UNL1       -0.2726
     30 C         144.1394  132.2145  155.7578 C.3     1  UNL1        0.0721
     31 C         145.1451  131.6513  156.7176 C.3     1  UNL1        0.0188
     32 C         145.1152  132.4865  157.9633 C.3     1  UNL1        0.0188
     33 C         144.0910  133.5659  157.7732 C.3     1  UNL1        0.0721
@<TRIPOS>BOND
     1    16    17    1
     2    17    18    1
     3    17    10    1
     4    10    11   ar
     5    11    12   ar
     6    12    13   ar
     7    13     4    1
     8     4     5   am
     9     5     6    2
    10     5     7   am
    11     7     1    1
    12     1     2    2
    13     1     3    2
    14     1    19    1
    15    19    20   ar
    16    20    21   ar
    17    21    22   ar
    18    22    25    1
    19    25    26    1
    20    26    27    1
    21    27    28    1
    22    28    29    1
    23    29    30    1
    24    30    31    1
    25    31    32    1
    26    32    33    1
    27    22    23   ar
    28    23    24   ar
    29    13    14   ar
    30    14    15   ar
    31    15    10   ar
    32    24    19   ar
    33    33    29    1
    34     4     8    1
    35     7     9    1
@<TRIPOS>MOLECULE
*****
 33 35 0 0 0
SMALL
GASTEIGER

@<TRIPOS>ATOM
      1 S         142.3396  144.4126  162.9962 S.O2    1  UNL1        0.0768
      2 O         140.9473  144.8999  163.2680 O.2     1  UNL1       -0.1498
      3 O         143.7319  143.9252  162.7245 O.2     1  UNL1       -0.1498
      4 N         141.8432  145.2046  159.1392 N.am    1  UNL1       -0.2671
      5 C         141.8413  144.4700  160.4470 C.2     1  UNL1        0.3231
      6 O         141.3390  143.0581  160.5134 O.2     1  UNL1       -0.2509
      7 N         142.3416  145.1472  161.6884 N.am    1  UNL1       -0.1690
      8 H         142.1728  146.1312  159.0956 H       1  UNL1        0.1565
      9 H         142.6712  146.0739  161.6448 H       1  UNL1        0.1781
     10 C         140.3424  143.1728  155.4150 C.ar    1  UNL1        0.0480
     11 C         139.4303  144.0676  156.2007 C.ar    1  UNL1        0.0158
     12 C         139.9306  144.7449  157.4421 C.ar    1  UNL1        0.0160
     13 C         141.3429  144.5273  157.8978 C.ar    1  UNL1        0.0517
     14 C         142.2551  143.6325  157.1122 C.ar    1  UNL1        0.0160
     15 C         141.7548  142.9552  155.8708 C.ar    1  UNL1        0.0158
     16 C         139.7154  143.2706  152.8957 C.3     1  UNL1        0.1122
     17 N         139.8421  142.4956  154.1736 N.pl3   1  UNL1       -0.3041
     18 C         139.4686  141.0433  154.2102 C.3     1  UNL1        0.1122
     19 C         142.3377  143.6779  164.3040 C.ar    1  UNL1        0.1255
     20 C         141.0388  143.2637  164.9297 C.ar    1  UNL1        0.0233
     21 C         141.0369  142.5291  166.2374 C.ar    1  UNL1        0.0383
     22 C         142.3338  142.2086  166.9195 C.ar    1  UNL1        0.1386
     23 C         143.6326  142.6227  166.2939 C.ar    1  UNL1        0.0383
     24 C         143.6346  143.3574  164.9861 C.ar    1  UNL1        0.0233
     25 O         142.3319  141.4739  168.2273 O.3     1  UNL1       -0.4754
     26 C         142.7016  140.0208  168.2718 C.3     1  UNL1        0.2068
     27 C         142.3762  139.1282  167.1111 C.3     1  UNL1        0.0646
     28 C         143.4658  138.6742  166.1856 C.3     1  UNL1        0.0759
     29 N         143.6550  139.3512  164.8605 N.3     1  UNL1       -0.2726
     30 C         142.5624  139.8031  163.9374 C.3     1  UNL1        0.0721
     31 C         143.2020  140.4264  162.7322 C.3     1  UNL1        0.0188
     32 C         144.6900  140.3597  162.9105 C.3     1  UNL1        0.0188
     33 C         144.9699  139.6952  164.2258 C.3     1  UNL1        0.0721
@<TRIPOS>BOND
     1    16    17    1
     2    17    18    1
     3    17    10    1
     4    10    11   ar
     5    11    12   ar
     6    12    13   ar
     7    13     4    1
     8     4     5   am
     9     5     6    2
    10     5     7   am
    11     7     1    1
    12     1     2    2
    13     1     3    2
    14     1    19    1
    15    19    20   ar
    16    20    21   ar
    17    21    22   ar
    18    22    25    1
    19    25    26    1
    20    26    27    1
    21    27    28    1
    22    28    29    1
    23    29    30    1
    24    30    31    1
    25    31    32    1
    26    32    33    1
    27    22    23   ar
    28    23    24   ar
    29    13    14   ar
    30    14    15   ar
    31    15    10   ar
    32    24    19   ar
    33    33    29    1
    34     4     8    1
    35     7     9    1
@<TRIPOS>MOLECULE
*****
 33 35 0 0 0
SMALL
GASTEIGER

@<TRIPOS>ATOM
      1 S         143.0808  139.8961  158.9041 S.O2    1  UNL1        0.0768
      2 O         142.1113  140.6270  158.0232 O.2     1  UNL1       -0.1498
      3 O         144.0502  139.1653  159.7850 O.2     1  UNL1       -0.1498
      4 N         143.9120  137.4094  155.9249 N.am    1  UNL1       -0.2671
      5 C         143.2547  137.9991  157.1375 C.2     1  UNL1        0.3231
      6 O         142.1140  137.2813  157.7960 O.2     1  UNL1       -0.2509
      7 N         143.7381  139.3065  157.6915 N.am    1  UNL1       -0.1690
      8 H         144.6607  137.8805  155.4927 H       1  UNL1        0.1565
      9 H         144.4868  139.7776  157.2593 H       1  UNL1        0.1781
     10 C         142.4618  133.4871  154.2628 C.ar    1  UNL1        0.0480
     11 C         142.0891  134.7724  153.5854 C.ar    1  UNL1        0.0158
     12 C         142.5725  136.0799  154.1395 C.ar    1  UNL1        0.0160
     13 C         143.4286  136.1020  155.3709 C.ar    1  UNL1        0.0517
     14 C         143.8014  134.8166  156.0483 C.ar    1  UNL1        0.0160
     15 C         143.3180  133.5092  155.4942 C.ar    1  UNL1        0.0158
     16 C         141.0328  131.3310  154.5059 C.3     1  UNL1        0.1122
     17 N         141.9784  132.1797  153.7088 N.pl3   1  UNL1       -0.3041
     18 C         142.4407  131.7209  152.3576 C.3     1  UNL1        0.1122
     19 C         142.4235  140.4858  160.1166 C.ar    1  UNL1        0.1255
     20 C         142.3257  139.6846  161.3810 C.ar    1  UNL1        0.0233
     21 C         141.6684  140.2742  162.5936 C.ar    1  UNL1        0.0383
     22 C         141.1089  141.6649  162.5418 C.ar    1  UNL1        0.1386
     23 C         141.2067  142.4661  161.2775 C.ar    1  UNL1        0.0383
     24 C         141.8640  141.8765  160.0648 C.ar    1  UNL1        0.0233
     25 O         140.4516  142.2546  163.7543 O.3     1  UNL1       -0.4754
     26 C         139.2129  143.0873  163.6057 C.3     1  UNL1        0.2068
     27 C         137.8720  142.5031  163.9384 C.3     1  UNL1        0.0646
     28 C         137.3438  141.3412  163.1505 C.3     1  UNL1        0.0759
     29 N         137.9626  139.9840  163.3093 N.3     1  UNL1       -0.2726
     30 C         138.1746  138.9783  162.2167 C.3     1  UNL1        0.0721
     31 C         138.8210  137.7670  162.8207 C.3     1  UNL1        0.0188
     32 C         139.0084  138.0240  164.2866 C.3     1  UNL1        0.0188
     33 C         138.4778  139.3941  164.5886 C.3     1  UNL1        0.0721
@<TRIPOS>BOND
     1    16    17    1
     2    17    18    1
     3    17    10    1
     4    10    11   ar
     5    11    12   ar
     6    12    13   ar
     7    13     4    1
     8     4     5   am
     9     5     6    2
    10     5     7   am
    11     7     1    1
    12     1     2    2
    13     1     3    2
    14     1    19    1
    15    19    20   ar
    16    20    21   ar
    17    21    22   ar
    18    22    25    1
    19    25    26    1
    20    26    27    1
    21    27    28    1
    22    28    29    1
    23    29    30    1
    24    30    31    1
    25    31    32    1
    26    32    33    1
    27    22    23   ar
    28    23    24   ar
    29    13    14   ar
    30    14    15   ar
    31    15    10   ar
    32    24    19   ar
    33    33    29    1
    34     4     8    1
    35     7     9    1
@<TRIPOS>MOLECULE
*****
 33 35 0 0 0
SMALL
GASTEIGER

@<TRIPOS>ATOM
      1 S         142.2467  140.1892  158.5678 S.O2    1  UNL1        0.0768
      2 O         142.8180  139.6830  159.8590 O.2     1  UNL1       -0.1498
      3 O         141.6754  140.6955  157.2766 O.2     1  UNL1       -0.1498
      4 N         143.6740  137.0345  156.6286 N.am    1  UNL1       -0.2671
      5 C         142.7393  137.9256  157.3916 C.2     1  UNL1        0.3231
      6 O         141.3624  137.4442  157.7415 O.2     1  UNL1       -0.2509
      7 N         143.1815  139.2981  157.8047 N.am    1  UNL1       -0.1690
      8 H         144.5777  137.3504  156.3989 H       1  UNL1        0.1565
      9 H         144.0852  139.6141  157.5751 H       1  UNL1        0.1781
     10 C         142.3475  132.9170  155.3891 C.ar    1  UNL1        0.0480
     11 C         142.9325  133.1378  156.7526 C.ar    1  UNL1        0.0158
     12 C         143.3746  134.5103  157.1657 C.ar    1  UNL1        0.0160
     13 C         143.2318  135.6620  156.2154 C.ar    1  UNL1        0.0517
     14 C         142.6469  135.4412  154.8520 C.ar    1  UNL1        0.0160
     15 C         142.2047  134.0687  154.4388 C.ar    1  UNL1        0.0158
     16 C         142.5666  130.3342  155.5658 C.3     1  UNL1        0.1122
     17 N         141.9053  131.5444  154.9760 N.pl3   1  UNL1       -0.3041
     18 C         140.8019  131.3822  153.9730 C.3     1  UNL1        0.1122
     19 C         141.3120  141.0803  159.3307 C.ar    1  UNL1        0.1255
     20 C         141.7269  141.6410  160.6588 C.ar    1  UNL1        0.0233
     21 C         140.7921  142.5321  161.4217 C.ar    1  UNL1        0.0383
     22 C         139.4425  142.8626  160.8567 C.ar    1  UNL1        0.1386
     23 C         139.0276  142.3020  159.5288 C.ar    1  UNL1        0.0383
     24 C         139.9623  141.4108  158.7657 C.ar    1  UNL1        0.0233
     25 O         138.5077  143.7537  161.6197 O.3     1  UNL1       -0.4754
     26 C         137.9073  143.2811  162.9105 C.3     1  UNL1        0.2068
     27 C         137.3375  141.8971  163.0104 C.3     1  UNL1        0.0646
     28 C         138.1643  140.7854  163.5853 C.3     1  UNL1        0.0759
     29 N         138.7767  139.7597  162.6782 N.3     1  UNL1       -0.2726
     30 C         138.1796  139.2410  161.4036 C.3     1  UNL1        0.0721
     31 C         139.1276  138.2334  160.8240 C.3     1  UNL1        0.0188
     32 C         140.3106  138.1293  161.7404 C.3     1  UNL1        0.0188
     33 C         140.0938  139.0726  162.8863 C.3     1  UNL1        0.0721
@<TRIPOS>BOND
     1    16    17    1
     2    17    18    1
     3    17    10    1
     4    10    11   ar
     5    11    12   ar
     6    12    13   ar
     7    13     4    1
     8     4     5   am
     9     5     6    2
    10     5     7   am
    11     7     1    1
    12     1     2    2
    13     1     3    2
    14     1    19    1
    15    19    20   ar
    16    20    21   ar
    17    21    22   ar
    18    22    25    1
    19    25    26    1
    20    26    27    1
    21    27    28    1
    22    28    29    1
    23    29    30    1
    24    30    31    1
    25    31    32    1
    26    32    33    1
    27    22    23   ar
    28    23    24   ar
    29    13    14   ar
    30    14    15   ar
    31    15    10   ar
    32    24    19   ar
    33    33    29    1
    34     4     8    1
    35     7     9    1
@<TRIPOS>MOLECULE
*****
 33 35 0 0 0
SMALL
GASTEIGER

@<TRIPOS>ATOM
      1 S         139.4418  140.0126  158.6008 S.O2    1  UNL1        0.0768
      2 O         137.9629  139.8920  158.3818 O.2     1  UNL1       -0.1498
      3 O         140.9208  140.1331  158.8198 O.2     1  UNL1       -0.1498
      4 N         139.6459  142.7091  155.6961 N.am    1  UNL1       -0.2671
      5 C         139.4933  142.1039  157.0600 C.2     1  UNL1        0.3231
      6 O         139.2393  142.9848  158.2473 O.2     1  UNL1       -0.2509
      7 N         139.5945  140.6178  157.2368 N.am    1  UNL1       -0.1690
      8 H         139.8126  142.1309  154.9169 H       1  UNL1        0.1565
      9 H         139.7612  140.0396  156.4576 H       1  UNL1        0.1781
     10 C         139.3421  147.1674  155.1659 C.ar    1  UNL1        0.0480
     11 C         140.6648  146.5392  155.4907 C.ar    1  UNL1        0.0158
     12 C         140.7661  145.0531  155.6674 C.ar    1  UNL1        0.0160
     13 C         139.5446  144.1952  155.5194 C.ar    1  UNL1        0.0517
     14 C         138.2219  144.8234  155.1946 C.ar    1  UNL1        0.0160
     15 C         138.1206  146.3095  155.0179 C.ar    1  UNL1        0.0158
     16 C         139.8522  149.3092  153.7866 C.3     1  UNL1        0.1122
     17 N         139.2408  148.6535  154.9892 N.pl3   1  UNL1       -0.3041
     18 C         138.5280  149.4839  156.0150 C.3     1  UNL1        0.1122
     19 C         139.2892  139.4074  159.9648 C.ar    1  UNL1        0.1255
     20 C         140.4830  138.8327  160.6682 C.ar    1  UNL1        0.0233
     21 C         140.3303  138.2276  162.0322 C.ar    1  UNL1        0.0383
     22 C         138.9839  138.1970  162.6927 C.ar    1  UNL1        0.1386
     23 C         137.7902  138.7717  161.9894 C.ar    1  UNL1        0.0383
     24 C         137.9428  139.3769  160.6253 C.ar    1  UNL1        0.0233
     25 O         138.8313  137.5919  164.0567 O.3     1  UNL1       -0.4754
     26 C         138.5793  138.4730  165.2443 C.3     1  UNL1        0.2068
     27 C         139.6045  139.4874  165.6565 C.3     1  UNL1        0.0646
     28 C         139.2900  140.9512  165.5653 C.3     1  UNL1        0.0759
     29 N         139.0199  141.5785  164.2298 N.3     1  UNL1       -0.2726
     30 C         140.0303  141.8164  163.1469 C.3     1  UNL1        0.0721
     31 C         139.3269  142.4630  161.9906 C.3     1  UNL1        0.0188
     32 C         137.8818  142.6247  162.3588 C.3     1  UNL1        0.0188
     33 C         137.6921  142.0781  163.7427 C.3     1  UNL1        0.0721
@<TRIPOS>BOND
     1    16    17    1
     2    17    18    1
     3    17    10    1
     4    10    11   ar
     5    11    12   ar
     6    12    13   ar
     7    13     4    1
     8     4     5   am
     9     5     6    2
    10     5     7   am
    11     7     1    1
    12     1     2    2
    13     1     3    2
    14     1    19    1
    15    19    20   ar
    16    20    21   ar
    17    21    22   ar
    18    22    25    1
    19    25    26    1
    20    26    27    1
    21    27    28    1
    22    28    29    1
    23    29    30    1
    24    30    31    1
    25    31    32    1
    26    32    33    1
    27    22    23   ar
    28    23    24   ar
    29    13    14   ar
    30    14    15   ar
    31    15    10   ar
    32    24    19   ar
    33    33    29    1
    34     4     8    1
    35     7     9    1
