@<TRIPOS>MOLECULE
*****
 33 36 0 0 0
SMALL
GASTEIGER

@<TRIPOS>ATOM
      1 C         143.0302  143.1245  170.6637 C.3     1  UNL1        0.1383
      2 N         142.0330  142.3162  169.8876 N.ar    1  UNL1       -0.2455
      3 C         142.2310  142.0913  168.4178 C.ar    1  UNL1        0.2816
      4 O         143.4261  142.6748  167.7241 O.2     1  UNL1       -0.2652
      5 C         141.2338  141.2831  167.6418 C.ar    1  UNL1        0.1342
      6 C         140.0386  140.6996  168.3354 C.ar    1  UNL1        0.0871
      7 C         139.2304  139.9520  167.3166 C.ar    1  UNL1        0.0515
      8 C         139.9261  140.0735  165.9933 C.ar    1  UNL1        0.1142
      9 N         141.1642  140.8961  166.1942 N.ar    1  UNL1       -0.3068
     10 N         139.8406  140.9244  169.8052 N.ar    1  UNL1       -0.2776
     11 C         138.6455  140.3410  170.4990 C.3     1  UNL1        0.1351
     12 C         140.8379  141.7328  170.5813 C.ar    1  UNL1        0.3339
     13 O         140.6399  141.9576  172.0511 O.2     1  UNL1       -0.2462
     14 N         139.4647  139.4770  164.6966 N.pl3   1  UNL1       -0.2932
     15 C         139.9229  138.1059  164.2967 C.3     1  UNL1        0.0922
     16 C         139.4614  137.5095  163.0000 C.3     1  UNL1        0.0228
     17 C         138.5418  138.2842  162.1033 C.3     1  UNL1        0.0177
     18 C         138.0836  139.6553  162.5032 C.3     1  UNL1        0.0575
     19 C         137.3803  140.9789  162.4460 C.3     1  UNL1        0.0173
     20 N         137.3779  139.5186  161.1867 N.3     1  UNL1       -0.3219
     21 C         138.5450  140.2517  163.7999 C.3     1  UNL1        0.1062
     22 H         137.5960  138.6104  160.7767 H       1  UNL1        0.1188
     23 H         137.6868  140.2590  160.5568 H       1  UNL1        0.1188
     24 C         142.1583  141.2666  165.1337 C.3     1  UNL1        0.1348
     25 C         142.1029  142.6226  164.4949 C.ar    1  UNL1        0.0123
     26 C         140.8168  143.3945  164.4837 C.ar    1  UNL1        0.0279
     27 C         140.7614  144.7505  163.8448 C.ar    1  UNL1        0.1399
     28 F         139.4753  145.5224  163.8336 F       1  UNL1       -0.2042
     29 C         141.9922  145.3347  163.2170 C.ar    1  UNL1        0.0303
     30 C         143.2782  144.5628  163.2282 C.ar    1  UNL1        0.0123
     31 C         143.3337  143.2068  163.8671 C.ar    1  UNL1        0.0664
     32 C         144.6197  142.4350  163.8783 C.1     1  UNL1        0.1002
     33 N         145.9059  141.6631  163.8894 N.1     1  UNL1       -0.1908
@<TRIPOS>BOND
     1     1     2    1
     2     2     3   ar
     3     3     4    2
     4     3     5   ar
     5     5     6   ar
     6     6     7   ar
     7     7     8   ar
     8     8    14    1
     9    14    15    1
    10    15    16    1
    11    16    17    1
    12    17    18    1
    13    18    19    1
    14    18    20    1
    15    18    21    1
    16     8     9   ar
    17     9    24    1
    18    24    25    1
    19    25    26   ar
    20    26    27   ar
    21    27    28    1
    22    27    29   ar
    23    29    30   ar
    24    30    31   ar
    25    31    32    1
    26    32    33    3
    27     6    10   ar
    28    10    11    1
    29    10    12   ar
    30    12    13    2
    31    12     2   ar
    32     9     5   ar
    33    31    25   ar
    34    21    14    1
    35    20    22    1
    36    20    23    1
@<TRIPOS>MOLECULE
*****
 33 36 0 0 0
SMALL
GASTEIGER

@<TRIPOS>ATOM
      1 C         138.4380  140.2387  170.6891 C.3     1  UNL1        0.1383
      2 N         139.6282  140.7894  169.9609 N.ar    1  UNL1       -0.2455
      3 C         139.8506  140.4442  168.5182 C.ar    1  UNL1        0.2816
      4 O         138.8827  139.5482  167.8037 O.2     1  UNL1       -0.2652
      5 C         141.0407  140.9949  167.7901 C.ar    1  UNL1        0.1342
      6 C         142.0086  141.8908  168.5046 C.ar    1  UNL1        0.0871
      7 C         143.0833  142.2805  167.5335 C.ar    1  UNL1        0.0515
      8 C         142.7796  141.6254  166.2187 C.ar    1  UNL1        0.1142
      9 N         141.5173  140.8308  166.3773 N.ar    1  UNL1       -0.3068
     10 N         141.7862  142.2361  169.9473 N.ar    1  UNL1       -0.2776
     11 C         142.7541  143.1321  170.6619 C.3     1  UNL1        0.1351
     12 C         140.5960  141.6854  170.6754 C.ar    1  UNL1        0.3339
     13 O         140.3737  142.0306  172.1182 O.2     1  UNL1       -0.2462
     14 N         143.5951  141.7440  164.9653 N.pl3   1  UNL1       -0.2932
     15 C         144.4481  140.5956  164.5141 C.3     1  UNL1        0.0922
     16 C         145.2636  140.7143  163.2607 C.3     1  UNL1        0.0228
     17 C         145.2261  141.9813  162.4586 C.3     1  UNL1        0.0177
     18 C         144.3732  143.1297  162.9099 C.3     1  UNL1        0.0575
     19 C         143.7253  144.4824  162.9281 C.3     1  UNL1        0.0173
     20 N         144.9636  143.7181  161.6629 N.3     1  UNL1       -0.3219
     21 C         143.5577  143.0110  164.1633 C.3     1  UNL1        0.1062
     22 H         145.5860  143.0374  161.2274 H       1  UNL1        0.1188
     23 H         145.4913  144.5582  161.9001 H       1  UNL1        0.1188
     24 C         140.8488  140.0154  165.3104 C.3     1  UNL1        0.1348
     25 C         139.6704  140.5727  164.5684 C.ar    1  UNL1        0.0123
     26 C         139.0194  141.8399  165.0379 C.ar    1  UNL1        0.0279
     27 C         137.8409  142.3971  164.2959 C.ar    1  UNL1        0.1399
     28 F         137.1899  143.6643  164.7653 F       1  UNL1       -0.2042
     29 C         137.3134  141.6872  163.0843 C.ar    1  UNL1        0.0303
     30 C         137.9643  140.4201  162.6148 C.ar    1  UNL1        0.0123
     31 C         139.1428  139.8627  163.3568 C.ar    1  UNL1        0.0664
     32 C         139.7938  138.5956  162.8874 C.1     1  UNL1        0.1002
     33 N         140.4448  137.3284  162.4179 N.1     1  UNL1       -0.1908
@<TRIPOS>BOND
     1     1     2    1
     2     2     3   ar
     3     3     4    2
     4     3     5   ar
     5     5     6   ar
     6     6     7   ar
     7     7     8   ar
     8     8    14    1
     9    14    15    1
    10    15    16    1
    11    16    17    1
    12    17    18    1
    13    18    19    1
    14    18    20    1
    15    18    21    1
    16     8     9   ar
    17     9    24    1
    18    24    25    1
    19    25    26   ar
    20    26    27   ar
    21    27    28    1
    22    27    29   ar
    23    29    30   ar
    24    30    31   ar
    25    31    32    1
    26    32    33    3
    27     6    10   ar
    28    10    11    1
    29    10    12   ar
    30    12    13    2
    31    12     2   ar
    32     9     5   ar
    33    31    25   ar
    34    21    14    1
    35    20    22    1
    36    20    23    1
@<TRIPOS>MOLECULE
*****
 33 36 0 0 0
SMALL
GASTEIGER

@<TRIPOS>ATOM
      1 C         143.0997  143.0097  170.4797 C.3     1  UNL1        0.1383
      2 N         142.0485  142.2420  169.7341 N.ar    1  UNL1       -0.2455
      3 C         142.1868  142.0222  168.2568 C.ar    1  UNL1        0.2816
      4 O         143.3762  142.5700  167.5251 O.2     1  UNL1       -0.2652
      5 C         141.1358  141.2545  167.5112 C.ar    1  UNL1        0.1342
      6 C         139.9464  140.7067  168.2429 C.ar    1  UNL1        0.0871
      7 C         139.0777  139.9951  167.2484 C.ar    1  UNL1        0.0515
      8 C         139.7301  140.1032  165.9021 C.ar    1  UNL1        0.1142
      9 N         141.0021  140.8815  166.0645 N.ar    1  UNL1       -0.3068
     10 N         139.8081  140.9265  169.7202 N.ar    1  UNL1       -0.2776
     11 C         138.6188  140.3788  170.4520 C.3     1  UNL1        0.1351
     12 C         140.8593  141.6943  170.4658 C.ar    1  UNL1        0.3339
     13 O         140.7210  141.9142  171.9432 O.2     1  UNL1       -0.2462
     14 N         139.2032  139.5330  164.6187 N.pl3   1  UNL1       -0.2932
     15 C         139.4274  138.0861  164.2928 C.3     1  UNL1        0.0922
     16 C         138.9004  137.5160  163.0093 C.3     1  UNL1        0.0228
     17 C         138.1492  138.3927  162.0517 C.3     1  UNL1        0.0177
     18 C         137.9249  139.8396  162.3776 C.3     1  UNL1        0.0575
     19 C         137.4618  141.2598  162.2413 C.3     1  UNL1        0.0173
     20 N         137.2371  139.7627  161.0468 N.3     1  UNL1       -0.3219
     21 C         138.4519  140.4097  163.6611 C.3     1  UNL1        0.1062
     22 H         137.3049  138.8121  160.6835 H       1  UNL1        0.1188
     23 H         137.6836  140.4083  160.3955 H       1  UNL1        0.1188
     24 C         141.9703  141.2262  164.9719 C.3     1  UNL1        0.1348
     25 C         142.1355  140.3067  163.7984 C.ar    1  UNL1        0.0123
     26 C         141.6172  140.7110  162.4501 C.ar    1  UNL1        0.0279
     27 C         141.7824  139.7914  161.2766 C.ar    1  UNL1        0.1399
     28 F         141.2642  140.1957  159.9282 F       1  UNL1       -0.2042
     29 C         142.4657  138.4675  161.4514 C.ar    1  UNL1        0.0303
     30 C         142.9839  138.0633  162.7996 C.ar    1  UNL1        0.0123
     31 C         142.8188  138.9828  163.9732 C.ar    1  UNL1        0.0664
     32 C         143.3370  138.5786  165.3215 C.1     1  UNL1        0.1002
     33 N         143.8552  138.1743  166.6699 N.1     1  UNL1       -0.1908
@<TRIPOS>BOND
     1     1     2    1
     2     2     3   ar
     3     3     4    2
     4     3     5   ar
     5     5     6   ar
     6     6     7   ar
     7     7     8   ar
     8     8    14    1
     9    14    15    1
    10    15    16    1
    11    16    17    1
    12    17    18    1
    13    18    19    1
    14    18    20    1
    15    18    21    1
    16     8     9   ar
    17     9    24    1
    18    24    25    1
    19    25    26   ar
    20    26    27   ar
    21    27    28    1
    22    27    29   ar
    23    29    30   ar
    24    30    31   ar
    25    31    32    1
    26    32    33    3
    27     6    10   ar
    28    10    11    1
    29    10    12   ar
    30    12    13    2
    31    12     2   ar
    32     9     5   ar
    33    31    25   ar
    34    21    14    1
    35    20    22    1
    36    20    23    1
@<TRIPOS>MOLECULE
*****
 33 36 0 0 0
SMALL
GASTEIGER

@<TRIPOS>ATOM
      1 C         143.0970  139.7163  170.8489 C.3     1  UNL1        0.1383
      2 N         142.4036  140.6792  169.9311 N.ar    1  UNL1       -0.2455
      3 C         142.3456  140.4018  168.4582 C.ar    1  UNL1        0.2816
      4 O         142.9809  139.1615  167.9030 O.2     1  UNL1       -0.2652
      5 C         141.6523  141.3646  167.5404 C.ar    1  UNL1        0.1342
      6 C         141.0170  142.6048  168.0956 C.ar    1  UNL1        0.0871
      7 C         140.4081  143.3644  166.9545 C.ar    1  UNL1        0.0515
      8 C         140.6671  142.5936  165.6940 C.ar    1  UNL1        0.1142
      9 N         141.4360  141.3577  166.0561 N.ar    1  UNL1       -0.3068
     10 N         141.0750  142.8822  169.5686 N.ar    1  UNL1       -0.2776
     11 C         140.4397  144.1224  170.1239 C.3     1  UNL1        0.1351
     12 C         141.7683  141.9193  170.4863 C.ar    1  UNL1        0.3339
     13 O         141.8264  142.1967  171.9594 O.2     1  UNL1       -0.2462
     14 N         140.2333  142.9893  164.3137 N.pl3   1  UNL1       -0.2932
     15 C         141.0722  143.9347  163.5060 C.3     1  UNL1        0.0922
     16 C         140.6384  144.3304  162.1257 C.3     1  UNL1        0.0228
     17 C         139.3656  143.7807  161.5530 C.3     1  UNL1        0.0177
     18 C         138.5266  142.8353  162.3607 C.3     1  UNL1        0.0575
     19 C         137.4013  141.9166  162.7341 C.3     1  UNL1        0.0173
     20 N         137.7020  142.9119  161.1101 N.3     1  UNL1       -0.3219
     21 C         138.9605  142.4397  163.7411 C.3     1  UNL1        0.1062
     22 H         138.1544  143.5361  160.4422 H       1  UNL1        0.1188
     23 H         136.7742  143.2706  161.3360 H       1  UNL1        0.1188
     24 C         141.9062  140.3005  165.1015 C.3     1  UNL1        0.1348
     25 C         140.9142  139.3814  164.4524 C.ar    1  UNL1        0.0123
     26 C         140.0549  138.4882  165.2972 C.ar    1  UNL1        0.0279
     27 C         139.0629  137.5691  164.6480 C.ar    1  UNL1        0.1399
     28 F         138.2036  136.6759  165.4928 F       1  UNL1       -0.2042
     29 C         138.9303  137.5432  163.1541 C.ar    1  UNL1        0.0303
     30 C         139.7896  138.4364  162.3093 C.ar    1  UNL1        0.0123
     31 C         140.7816  139.3556  162.9584 C.ar    1  UNL1        0.0664
     32 C         141.6409  140.2487  162.1137 C.1     1  UNL1        0.1002
     33 N         142.5003  141.1420  161.2689 N.1     1  UNL1       -0.1908
@<TRIPOS>BOND
     1     1     2    1
     2     2     3   ar
     3     3     4    2
     4     3     5   ar
     5     5     6   ar
     6     6     7   ar
     7     7     8   ar
     8     8    14    1
     9    14    15    1
    10    15    16    1
    11    16    17    1
    12    17    18    1
    13    18    19    1
    14    18    20    1
    15    18    21    1
    16     8     9   ar
    17     9    24    1
    18    24    25    1
    19    25    26   ar
    20    26    27   ar
    21    27    28    1
    22    27    29   ar
    23    29    30   ar
    24    30    31   ar
    25    31    32    1
    26    32    33    3
    27     6    10   ar
    28    10    11    1
    29    10    12   ar
    30    12    13    2
    31    12     2   ar
    32     9     5   ar
    33    31    25   ar
    34    21    14    1
    35    20    22    1
    36    20    23    1
@<TRIPOS>MOLECULE
*****
 33 36 0 0 0
SMALL
GASTEIGER

@<TRIPOS>ATOM
      1 C         139.6429  143.7724  160.3378 C.3     1  UNL1        0.1383
      2 N         140.5225  143.5541  161.5332 N.ar    1  UNL1       -0.2455
      3 C         139.9711  142.8869  162.7582 C.ar    1  UNL1        0.2816
      4 O         138.5401  142.4380  162.7879 O.2     1  UNL1       -0.2652
      5 C         140.8506  142.6687  163.9536 C.ar    1  UNL1        0.1342
      6 C         142.2815  143.1176  163.9239 C.ar    1  UNL1        0.0871
      7 C         142.9039  142.7702  165.2437 C.ar    1  UNL1        0.0515
      8 C         141.8576  142.1065  166.0891 C.ar    1  UNL1        0.1142
      9 N         140.5885  142.0437  165.2918 N.ar    1  UNL1       -0.3068
     10 N         142.8329  143.7848  162.6988 N.ar    1  UNL1       -0.2776
     11 C         144.2639  144.2338  162.6690 C.3     1  UNL1        0.1351
     12 C         141.9533  144.0031  161.5035 C.ar    1  UNL1        0.3339
     13 O         142.5048  144.6703  160.2783 O.2     1  UNL1       -0.2462
     14 N         142.0470  141.5952  167.4865 N.pl3   1  UNL1       -0.2932
     15 C         142.4077  140.1576  167.7167 C.3     1  UNL1        0.0922
     16 C         142.5971  139.6464  169.1142 C.3     1  UNL1        0.0228
     17 C         142.4258  140.5728  170.2814 C.3     1  UNL1        0.0177
     18 C         142.0650  142.0105  170.0512 C.3     1  UNL1        0.0575
     19 C         141.7296  143.4434  170.3412 C.3     1  UNL1        0.0173
     20 N         142.1379  141.9970  171.5493 N.3     1  UNL1       -0.3219
     21 C         141.8756  142.5216  168.6537 C.3     1  UNL1        0.1062
     22 H         142.3810  141.0595  171.8695 H       1  UNL1        0.1188
     23 H         141.2328  142.2642  171.9362 H       1  UNL1        0.1188
     24 C         139.2862  141.4588  165.7519 C.3     1  UNL1        0.1348
     25 C         138.9947  140.0052  165.5238 C.ar    1  UNL1        0.0123
     26 C         138.9377  139.4619  164.1268 C.ar    1  UNL1        0.0279
     27 C         138.6462  138.0083  163.8987 C.ar    1  UNL1        0.1399
     28 F         138.5891  137.4650  162.5016 F       1  UNL1       -0.2042
     29 C         138.4118  137.0979  165.0676 C.ar    1  UNL1        0.0303
     30 C         138.4689  137.6411  166.4645 C.ar    1  UNL1        0.0123
     31 C         138.7603  139.0947  166.6927 C.ar    1  UNL1        0.0664
     32 C         138.8174  139.6380  168.0896 C.1     1  UNL1        0.1002
     33 N         138.8745  140.1813  169.4866 N.1     1  UNL1       -0.1908
@<TRIPOS>BOND
     1     1     2    1
     2     2     3   ar
     3     3     4    2
     4     3     5   ar
     5     5     6   ar
     6     6     7   ar
     7     7     8   ar
     8     8    14    1
     9    14    15    1
    10    15    16    1
    11    16    17    1
    12    17    18    1
    13    18    19    1
    14    18    20    1
    15    18    21    1
    16     8     9   ar
    17     9    24    1
    18    24    25    1
    19    25    26   ar
    20    26    27   ar
    21    27    28    1
    22    27    29   ar
    23    29    30   ar
    24    30    31   ar
    25    31    32    1
    26    32    33    3
    27     6    10   ar
    28    10    11    1
    29    10    12   ar
    30    12    13    2
    31    12     2   ar
    32     9     5   ar
    33    31    25   ar
    34    21    14    1
    35    20    22    1
    36    20    23    1
@<TRIPOS>MOLECULE
*****
 33 36 0 0 0
SMALL
GASTEIGER

@<TRIPOS>ATOM
      1 C         144.2256  142.4507  170.1625 C.3     1  UNL1        0.1383
      2 N         142.9936  141.9563  169.4640 N.ar    1  UNL1       -0.2455
      3 C         142.8298  142.1734  167.9888 C.ar    1  UNL1        0.2816
      4 O         143.8979  142.8848  167.2123 O.2     1  UNL1       -0.2652
      5 C         141.5979  141.6790  167.2903 C.ar    1  UNL1        0.1342
      6 C         140.5298  140.9676  168.0669 C.ar    1  UNL1        0.0871
      7 C         139.4333  140.5955  167.1133 C.ar    1  UNL1        0.0515
      8 C         139.8238  141.0769  165.7474 C.ar    1  UNL1        0.1142
      9 N         141.1615  141.7466  165.8567 N.ar    1  UNL1       -0.3068
     10 N         140.6936  140.7505  169.5420 N.ar    1  UNL1       -0.2776
     11 C         139.6255  140.0391  170.3187 C.3     1  UNL1        0.1351
     12 C         141.9256  141.2449  170.2405 C.ar    1  UNL1        0.3339
     13 O         142.0894  141.0279  171.7157 O.2     1  UNL1       -0.2462
     14 N         139.0179  140.9168  164.4924 N.pl3   1  UNL1       -0.2932
     15 C         138.3330  142.1047  163.8842 C.3     1  UNL1        0.0922
     16 C         137.5271  141.9445  162.6292 C.3     1  UNL1        0.0228
     17 C         137.4063  140.5965  161.9824 C.3     1  UNL1        0.0177
     18 C         138.0912  139.4087  162.5905 C.3     1  UNL1        0.0575
     19 C         138.5519  137.9947  162.7865 C.3     1  UNL1        0.0173
     20 N         137.4454  138.7575  161.4036 N.3     1  UNL1       -0.3219
     21 C         138.8970  139.5689  163.8455 C.3     1  UNL1        0.1062
     22 H         136.9261  139.4568  160.8728 H       1  UNL1        0.1188
     23 H         136.8067  138.0285  161.7214 H       1  UNL1        0.1188
     24 C         141.9283  142.3737  164.7303 C.3     1  UNL1        0.1348
     25 C         142.7057  141.5112  163.7807 C.ar    1  UNL1        0.0123
     26 C         142.5002  140.0254  163.7773 C.ar    1  UNL1        0.0279
     27 C         143.2777  139.1629  162.8276 C.ar    1  UNL1        0.1399
     28 F         143.0722  137.6771  162.8242 F       1  UNL1       -0.2042
     29 C         144.2607  139.7864  161.8814 C.ar    1  UNL1        0.0303
     30 C         144.4661  141.2721  161.8849 C.ar    1  UNL1        0.0123
     31 C         143.6887  142.1347  162.8345 C.ar    1  UNL1        0.0664
     32 C         143.8941  143.6204  162.8380 C.1     1  UNL1        0.1002
     33 N         144.0996  145.1063  162.8415 N.1     1  UNL1       -0.1908
@<TRIPOS>BOND
     1     1     2    1
     2     2     3   ar
     3     3     4    2
     4     3     5   ar
     5     5     6   ar
     6     6     7   ar
     7     7     8   ar
     8     8    14    1
     9    14    15    1
    10    15    16    1
    11    16    17    1
    12    17    18    1
    13    18    19    1
    14    18    20    1
    15    18    21    1
    16     8     9   ar
    17     9    24    1
    18    24    25    1
    19    25    26   ar
    20    26    27   ar
    21    27    28    1
    22    27    29   ar
    23    29    30   ar
    24    30    31   ar
    25    31    32    1
    26    32    33    3
    27     6    10   ar
    28    10    11    1
    29    10    12   ar
    30    12    13    2
    31    12     2   ar
    32     9     5   ar
    33    31    25   ar
    34    21    14    1
    35    20    22    1
    36    20    23    1
@<TRIPOS>MOLECULE
*****
 33 36 0 0 0
SMALL
GASTEIGER

@<TRIPOS>ATOM
      1 C         143.3417  139.9114  170.8936 C.3     1  UNL1        0.1383
      2 N         142.4957  140.7307  169.9645 N.ar    1  UNL1       -0.2455
      3 C         142.3043  140.2936  168.5425 C.ar    1  UNL1        0.2816
      4 O         142.9589  139.0372  168.0495 O.2     1  UNL1       -0.2652
      5 C         141.4583  141.1128  167.6134 C.ar    1  UNL1        0.1342
      6 C         140.8037  142.3692  168.1065 C.ar    1  UNL1        0.0871
      7 C         140.0317  142.9673  166.9679 C.ar    1  UNL1        0.0515
      8 C         140.2093  142.0805  165.7712 C.ar    1  UNL1        0.1142
      9 N         141.0909  140.9344  166.1701 N.ar    1  UNL1       -0.3068
     10 N         140.9950  142.8063  169.5285 N.ar    1  UNL1       -0.2776
     11 C         140.3404  144.0627  170.0217 C.3     1  UNL1        0.1351
     12 C         141.8411  141.9870  170.4576 C.ar    1  UNL1        0.3339
     13 O         142.0325  142.4241  171.8797 O.2     1  UNL1       -0.2462
     14 N         139.6103  142.3011  164.4137 N.pl3   1  UNL1       -0.2932
     15 C         138.2088  141.8483  164.1297 C.3     1  UNL1        0.0922
     16 C         137.6099  142.0690  162.7723 C.3     1  UNL1        0.0228
     17 C         138.4125  142.7424  161.6988 C.3     1  UNL1        0.0177
     18 C         139.8140  143.1952  161.9828 C.3     1  UNL1        0.0575
     19 C         141.1712  143.7973  161.7696 C.3     1  UNL1        0.0173
     20 N         139.6865  143.6250  160.5513 N.3     1  UNL1       -0.3219
     21 C         140.4129  142.9746  163.3403 C.3     1  UNL1        0.1062
     22 H         138.7596  143.3790  160.2038 H       1  UNL1        0.1188
     23 H         140.3960  143.1536  159.9903 H       1  UNL1        0.1188
     24 C         141.5284  139.8078  165.2817 C.3     1  UNL1        0.1348
     25 C         142.5390  140.0539  164.2010 C.ar    1  UNL1        0.0123
     26 C         143.9156  140.5322  164.5563 C.ar    1  UNL1        0.0279
     27 C         144.9263  140.7783  163.4756 C.ar    1  UNL1        0.1399
     28 F         146.3029  141.2566  163.8310 F       1  UNL1       -0.2042
     29 C         144.5604  140.5461  162.0395 C.ar    1  UNL1        0.0303
     30 C         143.1839  140.0678  161.6842 C.ar    1  UNL1        0.0123
     31 C         142.1732  139.8217  162.7649 C.ar    1  UNL1        0.0664
     32 C         140.7967  139.3434  162.4096 C.1     1  UNL1        0.1002
     33 N         139.4201  138.8651  162.0543 N.1     1  UNL1       -0.1908
@<TRIPOS>BOND
     1     1     2    1
     2     2     3   ar
     3     3     4    2
     4     3     5   ar
     5     5     6   ar
     6     6     7   ar
     7     7     8   ar
     8     8    14    1
     9    14    15    1
    10    15    16    1
    11    16    17    1
    12    17    18    1
    13    18    19    1
    14    18    20    1
    15    18    21    1
    16     8     9   ar
    17     9    24    1
    18    24    25    1
    19    25    26   ar
    20    26    27   ar
    21    27    28    1
    22    27    29   ar
    23    29    30   ar
    24    30    31   ar
    25    31    32    1
    26    32    33    3
    27     6    10   ar
    28    10    11    1
    29    10    12   ar
    30    12    13    2
    31    12     2   ar
    32     9     5   ar
    33    31    25   ar
    34    21    14    1
    35    20    22    1
    36    20    23    1
@<TRIPOS>MOLECULE
*****
 33 36 0 0 0
SMALL
GASTEIGER

@<TRIPOS>ATOM
      1 C         140.3352  141.5589  170.2614 C.3     1  UNL1        0.1383
      2 N         140.0143  140.8365  168.9865 N.ar    1  UNL1       -0.2455
      3 C         140.8817  141.0272  167.7778 C.ar    1  UNL1        0.2816
      4 O         142.0701  141.9401  167.8439 O.2     1  UNL1       -0.2652
      5 C         140.5608  140.3049  166.5029 C.ar    1  UNL1        0.1342
      6 C         139.3725  139.3920  166.4368 C.ar    1  UNL1        0.0871
      7 C         139.3053  138.8179  165.0526 C.ar    1  UNL1        0.0515
      8 C         140.4522  139.3761  164.2632 C.ar    1  UNL1        0.1142
      9 N         141.2282  140.2951  165.1595 N.ar    1  UNL1       -0.3068
     10 N         138.5050  139.2013  167.6455 N.ar    1  UNL1       -0.2776
     11 C         137.3166  138.2884  167.5795 C.3     1  UNL1        0.1351
     12 C         138.8260  139.9236  168.9205 C.ar    1  UNL1        0.3339
     13 O         137.9585  139.7330  170.1293 O.2     1  UNL1       -0.2462
     14 N         140.7678  139.0692  162.8293 N.pl3   1  UNL1       -0.2932
     15 C         139.7100  139.2288  161.7778 C.3     1  UNL1        0.0922
     16 C         140.0256  138.9218  160.3438 C.3     1  UNL1        0.0228
     17 C         141.3990  138.4553  159.9613 C.3     1  UNL1        0.0177
     18 C         142.4568  138.2958  161.0128 C.3     1  UNL1        0.0575
     19 C         143.7843  137.9932  161.6422 C.3     1  UNL1        0.0173
     20 N         143.2334  137.8838  159.7975 N.3     1  UNL1       -0.3219
     21 C         142.1411  138.6027  162.4468 C.3     1  UNL1        0.1062
     22 H         142.6330  137.9408  158.9749 H       1  UNL1        0.1188
     23 H         143.5619  136.9250  159.9128 H       1  UNL1        0.1188
     24 C         142.4558  141.0685  164.7792 C.3     1  UNL1        0.1348
     25 C         142.3377  142.5031  164.3573 C.ar    1  UNL1        0.0123
     26 C         141.0513  143.2443  164.5712 C.ar    1  UNL1        0.0279
     27 C         140.9332  144.6789  164.1493 C.ar    1  UNL1        0.1399
     28 F         139.6468  145.4201  164.3632 F       1  UNL1       -0.2042
     29 C         142.1015  145.3723  163.5134 C.ar    1  UNL1        0.0303
     30 C         143.3879  144.6311  163.2995 C.ar    1  UNL1        0.0123
     31 C         143.5061  143.1965  163.7214 C.ar    1  UNL1        0.0664
     32 C         144.7924  142.4553  163.5075 C.1     1  UNL1        0.1002
     33 N         146.0788  141.7141  163.2936 N.1     1  UNL1       -0.1908
@<TRIPOS>BOND
     1     1     2    1
     2     2     3   ar
     3     3     4    2
     4     3     5   ar
     5     5     6   ar
     6     6     7   ar
     7     7     8   ar
     8     8    14    1
     9    14    15    1
    10    15    16    1
    11    16    17    1
    12    17    18    1
    13    18    19    1
    14    18    20    1
    15    18    21    1
    16     8     9   ar
    17     9    24    1
    18    24    25    1
    19    25    26   ar
    20    26    27   ar
    21    27    28    1
    22    27    29   ar
    23    29    30   ar
    24    30    31   ar
    25    31    32    1
    26    32    33    3
    27     6    10   ar
    28    10    11    1
    29    10    12   ar
    30    12    13    2
    31    12     2   ar
    32     9     5   ar
    33    31    25   ar
    34    21    14    1
    35    20    22    1
    36    20    23    1
@<TRIPOS>MOLECULE
*****
 33 36 0 0 0
SMALL
GASTEIGER

@<TRIPOS>ATOM
      1 C         142.9721  143.0776  170.6244 C.3     1  UNL1        0.1383
      2 N         141.9853  142.2732  169.8311 N.ar    1  UNL1       -0.2455
      3 C         142.2178  142.0312  168.3691 C.ar    1  UNL1        0.2816
      4 O         143.4371  142.5936  167.7005 O.2     1  UNL1       -0.2652
      5 C         141.2310  141.2269  167.5758 C.ar    1  UNL1        0.1342
      6 C         140.0117  140.6646  168.2445 C.ar    1  UNL1        0.0871
      7 C         139.2208  139.9163  167.2128 C.ar    1  UNL1        0.0515
      8 C         139.9512  140.0162  165.9065 C.ar    1  UNL1        0.1142
      9 N         141.1936  140.8262  166.1308 N.ar    1  UNL1       -0.3068
     10 N         139.7792  140.9066  169.7064 N.ar    1  UNL1       -0.2776
     11 C         138.5599  140.3442  170.3752 C.3     1  UNL1        0.1351
     12 C         140.7661  141.7109  170.4997 C.ar    1  UNL1        0.3339
     13 O         140.5336  141.9529  171.9618 O.2     1  UNL1       -0.2462
     14 N         139.5158  139.4121  164.6044 N.pl3   1  UNL1       -0.2932
     15 C         140.0677  138.0864  164.1708 C.3     1  UNL1        0.0922
     16 C         139.6322  137.4824  162.8686 C.3     1  UNL1        0.0228
     17 C         138.6448  138.2040  162.0001 C.3     1  UNL1        0.0177
     18 C         138.0928  139.5296  162.4337 C.3     1  UNL1        0.0575
     19 C         137.2931  140.7985  162.4126 C.3     1  UNL1        0.0173
     20 N         137.3796  139.3662  161.1243 N.3     1  UNL1       -0.3219
     21 C         138.5283  140.1336  163.7359 C.3     1  UNL1        0.1062
     22 H         137.6579  138.4847  160.6932 H       1  UNL1        0.1188
     23 H         137.6237  140.1393  160.5054 H       1  UNL1        0.1188
     24 C         142.2186  141.1743  165.0925 C.3     1  UNL1        0.1348
     25 C         141.8290  141.2364  163.6453 C.ar    1  UNL1        0.0123
     26 C         142.3170  140.1866  162.6915 C.ar    1  UNL1        0.0279
     27 C         141.9274  140.2487  161.2443 C.ar    1  UNL1        0.1399
     28 F         142.4154  139.1989  160.2905 F       1  UNL1       -0.2042
     29 C         141.0498  141.3607  160.7509 C.ar    1  UNL1        0.0303
     30 C         140.5618  142.4105  161.7047 C.ar    1  UNL1        0.0123
     31 C         140.9514  142.3484  163.1519 C.ar    1  UNL1        0.0664
     32 C         140.4635  143.3981  164.1057 C.1     1  UNL1        0.1002
     33 N         139.9755  144.4480  165.0595 N.1     1  UNL1       -0.1908
@<TRIPOS>BOND
     1     1     2    1
     2     2     3   ar
     3     3     4    2
     4     3     5   ar
     5     5     6   ar
     6     6     7   ar
     7     7     8   ar
     8     8    14    1
     9    14    15    1
    10    15    16    1
    11    16    17    1
    12    17    18    1
    13    18    19    1
    14    18    20    1
    15    18    21    1
    16     8     9   ar
    17     9    24    1
    18    24    25    1
    19    25    26   ar
    20    26    27   ar
    21    27    28    1
    22    27    29   ar
    23    29    30   ar
    24    30    31   ar
    25    31    32    1
    26    32    33    3
    27     6    10   ar
    28    10    11    1
    29    10    12   ar
    30    12    13    2
    31    12     2   ar
    32     9     5   ar
    33    31    25   ar
    34    21    14    1
    35    20    22    1
    36    20    23    1
