@<TRIPOS>MOLECULE
*****
 39 43 0 0 0
SMALL
GASTEIGER

@<TRIPOS>ATOM
      1 C         140.1285  139.7439  159.3304 C.3     1  UNL1        0.1631
      2 N         141.0446  138.7538  158.6743 N.ar    1  UNL1       -0.3047
      3 C         142.4246  138.3893  159.1356 C.ar    1  UNL1        0.1441
      4 N         142.9745  137.3645  158.1882 N.ar    1  UNL1       -0.2267
      5 C         141.9343  137.0958  157.1414 C.ar    1  UNL1        0.1010
      6 C         141.9191  136.1801  155.9534 C.ar    1  UNL1        0.0526
      7 C         140.7111  136.1231  155.0659 C.ar    1  UNL1        0.1690
      8 F         140.6960  135.2073  153.8778 F       1  UNL1       -0.2017
      9 C         139.5184  136.9816  155.3663 C.ar    1  UNL1        0.1689
     10 F         138.3105  136.9246  154.4787 F       1  UNL1       -0.2017
     11 C         139.5336  137.8973  156.5543 C.ar    1  UNL1        0.0507
     12 C         140.7416  137.9543  157.4418 C.ar    1  UNL1        0.0816
     13 C         143.1307  138.9509  160.3339 C.ar    1  UNL1        0.0342
     14 C         143.2897  138.1164  161.5701 C.ar    1  UNL1        0.0039
     15 C         143.9958  138.6780  162.7684 C.ar    1  UNL1        0.0115
     16 C         144.5430  140.0740  162.7305 C.ar    1  UNL1        0.0577
     17 CL        145.2491  140.6356  163.9289 Cl      1  UNL1       -0.0822
     18 C         144.3840  140.9086  161.4943 C.ar    1  UNL1        0.0115
     19 C         143.6779  140.3470  160.2960 C.ar    1  UNL1        0.0039
     20 C         139.8254  141.0479  158.6540 C.3     1  UNL1        0.0297
     21 C         138.4374  141.3326  158.1615 C.3     1  UNL1        0.0024
     22 C         138.1344  142.6366  157.4851 C.3     1  UNL1        0.0001
     23 C         139.2192  143.6561  157.3012 C.3     1  UNL1        0.0000
     24 C         140.6072  143.3715  157.7936 C.3     1  UNL1        0.0001
     25 C         140.9103  142.0674  158.4700 C.3     1  UNL1        0.0024
     26 N         140.2077  139.8519  161.9251 N.am    1  UNL1       -0.2806
     27 C         139.5155  139.4300  160.6630 C.2     1  UNL1        0.2469
     28 O         138.2103  138.6941  160.7335 O.2     1  UNL1       -0.2727
     29 H         141.0644  140.3349  161.8788 H       1  UNL1        0.1550
     30 C         138.3685  138.9102  165.9227 C.ar    1  UNL1        0.0163
     31 C         138.2826  140.3005  165.3664 C.ar    1  UNL1        0.0025
     32 C         138.8957  140.6144  164.0338 C.ar    1  UNL1        0.0170
     33 C         139.5947  139.5379  163.2576 C.ar    1  UNL1        0.0782
     34 C         139.6807  138.1476  163.8139 C.ar    1  UNL1        0.1535
     35 F         140.3797  137.0711  163.0376 F       1  UNL1       -0.2029
     36 C         139.0676  137.8337  165.1464 C.ar    1  UNL1        0.0320
     37 O         136.6119  137.6298  167.3457 O.co2   1  UNL1       -0.5446
     38 C         137.7555  138.5962  167.2552 C.2     1  UNL1        0.0729
     39 O         138.2861  139.2488  168.4972 O.co2   1  UNL1       -0.5446
@<TRIPOS>UNITY_ATOM_ATTR
37 1
charge -1
@<TRIPOS>BOND
     1    37    38   ar
     2    38    39   ar
     3    38    30    1
     4    30    31   ar
     5    31    32   ar
     6    32    33   ar
     7    33    26    1
     8    26    27   am
     9    27    28    2
    10    27     1    1
    11     1    20    1
    12    20    21    1
    13    21    22    1
    14    22    23    1
    15    23    24    1
    16    24    25    1
    17     1     2    1
    18     2     3   ar
    19     3    13    1
    20    13    14   ar
    21    14    15   ar
    22    15    16   ar
    23    16    17    1
    24    16    18   ar
    25    18    19   ar
    26     3     4   ar
    27     4     5   ar
    28     5     6   ar
    29     6     7   ar
    30     7     8    1
    31     7     9   ar
    32     9    10    1
    33     9    11   ar
    34    11    12   ar
    35    33    34   ar
    36    34    35    1
    37    34    36   ar
    38    36    30   ar
    39    25    20    1
    40    12     2   ar
    41    19    13   ar
    42    12     5   ar
    43    26    29    1
@<TRIPOS>MOLECULE
*****
 39 43 0 0 0
SMALL
GASTEIGER

@<TRIPOS>ATOM
      1 C         140.8637  141.7273  159.9999 C.3     1  UNL1        0.1631
      2 N         140.9259  143.1672  159.5842 N.ar    1  UNL1       -0.3047
      3 C         141.6316  144.2676  160.3199 C.ar    1  UNL1        0.1441
      4 N         141.4352  145.5400  159.5502 N.ar    1  UNL1       -0.2267
      5 C         140.6081  145.2260  158.3388 C.ar    1  UNL1        0.1010
      6 C         140.1010  146.0859  157.2193 C.ar    1  UNL1        0.0526
      7 C         139.2791  145.4794  156.1208 C.ar    1  UNL1        0.1690
      8 F         138.7719  146.3394  155.0013 F       1  UNL1       -0.2017
      9 C         138.9643  144.0129  156.1418 C.ar    1  UNL1        0.1689
     10 F         138.1424  143.4064  155.0433 F       1  UNL1       -0.2017
     11 C         139.4715  143.1530  157.2613 C.ar    1  UNL1        0.0507
     12 C         140.2934  143.7595  158.3598 C.ar    1  UNL1        0.0816
     13 C         142.3989  144.1212  161.6004 C.ar    1  UNL1        0.0342
     14 C         143.5920  143.2142  161.6603 C.ar    1  UNL1        0.0039
     15 C         144.3593  143.0678  162.9408 C.ar    1  UNL1        0.0115
     16 C         143.9335  143.8285  164.1614 C.ar    1  UNL1        0.0577
     17 CL        144.7009  143.6821  165.4420 Cl      1  UNL1       -0.0822
     18 C         142.7404  144.7355  164.1015 C.ar    1  UNL1        0.0115
     19 C         141.9731  144.8819  162.8211 C.ar    1  UNL1        0.0039
     20 C         141.5021  140.6720  159.1463 C.3     1  UNL1        0.0297
     21 C         140.7159  139.4621  158.7362 C.3     1  UNL1        0.0024
     22 C         141.3543  138.4067  157.8826 C.3     1  UNL1        0.0001
     23 C         142.7789  138.5612  157.4391 C.3     1  UNL1        0.0000
     24 C         143.5651  139.7710  157.8492 C.3     1  UNL1        0.0001
     25 C         142.9267  140.8264  158.7028 C.3     1  UNL1        0.0024
     26 N         140.7827  140.3358  162.1925 N.am    1  UNL1       -0.2806
     27 C         140.1631  141.3427  161.2693 C.2     1  UNL1        0.2469
     28 O         138.8430  141.9651  161.6156 O.2     1  UNL1       -0.2727
     29 H         141.6491  139.9273  161.9652 H       1  UNL1        0.1550
     30 C         138.6807  139.1821  166.0005 C.ar    1  UNL1        0.0163
     31 C         138.7184  138.2260  164.8454 C.ar    1  UNL1        0.0025
     32 C         139.4191  138.6106  163.5760 C.ar    1  UNL1        0.0170
     33 C         140.0821  139.9513  163.4618 C.ar    1  UNL1        0.0782
     34 C         140.0444  140.9074  164.6170 C.ar    1  UNL1        0.1535
     35 F         140.7073  142.2481  164.5028 F       1  UNL1       -0.2029
     36 C         139.3437  140.5228  165.8863 C.ar    1  UNL1        0.0320
     37 O         136.8346  137.8300  167.2308 O.co2   1  UNL1       -0.5446
     38 C         137.9801  138.7976  167.2698 C.2     1  UNL1        0.0729
     39 O         138.4251  139.3808  168.5783 O.co2   1  UNL1       -0.5446
@<TRIPOS>UNITY_ATOM_ATTR
37 1
charge -1
@<TRIPOS>BOND
     1    37    38   ar
     2    38    39   ar
     3    38    30    1
     4    30    31   ar
     5    31    32   ar
     6    32    33   ar
     7    33    26    1
     8    26    27   am
     9    27    28    2
    10    27     1    1
    11     1    20    1
    12    20    21    1
    13    21    22    1
    14    22    23    1
    15    23    24    1
    16    24    25    1
    17     1     2    1
    18     2     3   ar
    19     3    13    1
    20    13    14   ar
    21    14    15   ar
    22    15    16   ar
    23    16    17    1
    24    16    18   ar
    25    18    19   ar
    26     3     4   ar
    27     4     5   ar
    28     5     6   ar
    29     6     7   ar
    30     7     8    1
    31     7     9   ar
    32     9    10    1
    33     9    11   ar
    34    11    12   ar
    35    33    34   ar
    36    34    35    1
    37    34    36   ar
    38    36    30   ar
    39    25    20    1
    40    12     2   ar
    41    19    13   ar
    42    12     5   ar
    43    26    29    1
@<TRIPOS>MOLECULE
*****
 39 43 0 0 0
SMALL
GASTEIGER

@<TRIPOS>ATOM
      1 C         141.2832  140.4725  159.8103 C.3     1  UNL1        0.1631
      2 N         142.3915  141.4570  159.5811 N.ar    1  UNL1       -0.3047
      3 C         142.5972  142.7423  160.3267 C.ar    1  UNL1        0.1441
      4 N         143.8214  143.4087  159.7724 N.ar    1  UNL1       -0.2267
      5 C         144.3722  142.5354  158.6843 C.ar    1  UNL1        0.1010
      6 C         145.5643  142.6827  157.7859 C.ar    1  UNL1        0.0526
      7 C         145.8727  141.6237  156.7693 C.ar    1  UNL1        0.1690
      8 F         147.0648  141.7710  155.8708 F       1  UNL1       -0.2017
      9 C         144.9889  140.4175  156.6510 C.ar    1  UNL1        0.1689
     10 F         145.2972  139.3586  155.6343 F       1  UNL1       -0.2017
     11 C         143.7968  140.2702  157.5494 C.ar    1  UNL1        0.0507
     12 C         143.4884  141.3292  158.5661 C.ar    1  UNL1        0.0816
     13 C         141.7309  143.2686  161.4323 C.ar    1  UNL1        0.0342
     14 C         140.3861  143.8537  161.1176 C.ar    1  UNL1        0.0039
     15 C         139.5198  144.3800  162.2232 C.ar    1  UNL1        0.0115
     16 C         139.9983  144.3212  163.6436 C.ar    1  UNL1        0.0577
     17 CL        139.1319  144.8476  164.7492 Cl      1  UNL1       -0.0822
     18 C         141.3431  143.7362  163.9583 C.ar    1  UNL1        0.0115
     19 C         142.2095  143.2098  162.8528 C.ar    1  UNL1        0.0039
     20 C         140.5683  139.8623  158.6414 C.3     1  UNL1        0.0297
     21 C         139.7360  140.7236  157.7384 C.3     1  UNL1        0.0024
     22 C         139.0211  140.1133  156.5694 C.3     1  UNL1        0.0001
     23 C         139.1385  138.6418  156.3035 C.3     1  UNL1        0.0000
     24 C         139.9708  137.7804  157.2065 C.3     1  UNL1        0.0001
     25 C         140.6857  138.3907  158.3754 C.3     1  UNL1        0.0024
     26 N         139.4545  140.1914  161.6344 N.am    1  UNL1       -0.2806
     27 C         140.8898  140.0982  161.2087 C.2     1  UNL1        0.2469
     28 O         141.9318  139.6308  162.1812 O.2     1  UNL1       -0.2727
     29 H         138.7706  140.4981  160.9961 H       1  UNL1        0.1550
     30 C         138.2746  139.0686  165.8293 C.ar    1  UNL1        0.0163
     31 C         138.2386  140.5051  165.3991 C.ar    1  UNL1        0.0025
     32 C         138.6320  140.8794  164.0008 C.ar    1  UNL1        0.0170
     33 C         139.0612  139.8170  163.0326 C.ar    1  UNL1        0.0782
     34 C         139.0972  138.3805  163.4628 C.ar    1  UNL1        0.1535
     35 F         139.5264  137.3182  162.4947 F       1  UNL1       -0.2029
     36 C         138.7039  138.0063  164.8611 C.ar    1  UNL1        0.0320
     37 O         138.5492  139.3549  168.3969 O.co2   1  UNL1       -0.5446
     38 C         137.8813  138.6943  167.2276 C.2     1  UNL1        0.0729
     39 O         136.8200  137.6592  167.4565 O.co2   1  UNL1       -0.5446
@<TRIPOS>UNITY_ATOM_ATTR
37 1
charge -1
@<TRIPOS>BOND
     1    37    38   ar
     2    38    39   ar
     3    38    30    1
     4    30    31   ar
     5    31    32   ar
     6    32    33   ar
     7    33    26    1
     8    26    27   am
     9    27    28    2
    10    27     1    1
    11     1    20    1
    12    20    21    1
    13    21    22    1
    14    22    23    1
    15    23    24    1
    16    24    25    1
    17     1     2    1
    18     2     3   ar
    19     3    13    1
    20    13    14   ar
    21    14    15   ar
    22    15    16   ar
    23    16    17    1
    24    16    18   ar
    25    18    19   ar
    26     3     4   ar
    27     4     5   ar
    28     5     6   ar
    29     6     7   ar
    30     7     8    1
    31     7     9   ar
    32     9    10    1
    33     9    11   ar
    34    11    12   ar
    35    33    34   ar
    36    34    35    1
    37    34    36   ar
    38    36    30   ar
    39    25    20    1
    40    12     2   ar
    41    19    13   ar
    42    12     5   ar
    43    26    29    1
@<TRIPOS>MOLECULE
*****
 39 43 0 0 0
SMALL
GASTEIGER

@<TRIPOS>ATOM
      1 C         140.0931  142.1378  160.4011 C.3     1  UNL1        0.1631
      2 N         140.5656  143.3908  159.7254 N.ar    1  UNL1       -0.3047
      3 C         141.6069  144.3355  160.2482 C.ar    1  UNL1        0.1441
      4 N         141.7647  145.4476  159.2542 N.ar    1  UNL1       -0.2267
      5 C         140.8210  145.1903  158.1170 C.ar    1  UNL1        0.1010
      6 C         140.5407  145.9493  156.8539 C.ar    1  UNL1        0.0526
      7 C         139.5193  145.4370  155.8821 C.ar    1  UNL1        0.1690
      8 F         139.2391  146.1961  154.6189 F       1  UNL1       -0.2017
      9 C         138.7783  144.1658  156.1733 C.ar    1  UNL1        0.1689
     10 F         137.7569  143.6536  155.2014 F       1  UNL1       -0.2017
     11 C         139.0586  143.4068  157.4364 C.ar    1  UNL1        0.0507
     12 C         140.0799  143.9191  158.4082 C.ar    1  UNL1        0.0816
     13 C         142.3584  144.1930  161.5386 C.ar    1  UNL1        0.0342
     14 C         141.8636  144.8836  162.7748 C.ar    1  UNL1        0.0039
     15 C         142.6151  144.7411  164.0651 C.ar    1  UNL1        0.0115
     16 C         143.8613  143.9081  164.1192 C.ar    1  UNL1        0.0577
     17 CL        144.6127  143.7656  165.4096 Cl      1  UNL1       -0.0822
     18 C         144.3560  143.2175  162.8830 C.ar    1  UNL1        0.0115
     19 C         143.6046  143.3599  161.5927 C.ar    1  UNL1        0.0039
     20 C         139.4869  142.2074  161.7713 C.3     1  UNL1        0.0297
     21 C         140.1797  141.5573  162.9320 C.3     1  UNL1        0.0024
     22 C         139.5734  141.6270  164.3023 C.3     1  UNL1        0.0001
     23 C         138.2742  142.3469  164.5118 C.3     1  UNL1        0.0000
     24 C         137.5813  142.9971  163.3511 C.3     1  UNL1        0.0001
     25 C         138.1876  142.9273  161.9809 C.3     1  UNL1        0.0024
     26 N         141.2823  140.6214  158.6584 N.am    1  UNL1       -0.2806
     27 C         140.2268  140.8149  159.7066 C.2     1  UNL1        0.2469
     28 O         139.3051  139.6856  160.0602 O.2     1  UNL1       -0.2727
     29 H         141.8872  141.3626  158.4263 H       1  UNL1        0.1550
     30 C         141.6831  136.6530  156.5749 C.ar    1  UNL1        0.0163
     31 C         140.5656  137.5836  156.2073 C.ar    1  UNL1        0.0025
     32 C         140.4320  138.9065  156.9018 C.ar    1  UNL1        0.0170
     33 C         141.4159  139.2987  157.9640 C.ar    1  UNL1        0.0782
     34 C         142.5334  138.3680  158.3316 C.ar    1  UNL1        0.1535
     35 F         143.5173  138.7602  159.3938 F       1  UNL1       -0.2029
     36 C         142.6670  137.0452  157.6371 C.ar    1  UNL1        0.0320
     37 O         141.0918  135.0835  154.5907 O.co2   1  UNL1       -0.5446
     38 C         141.8168  135.3302  155.8805 C.2     1  UNL1        0.0729
     39 O         142.6755  134.2540  156.4758 O.co2   1  UNL1       -0.5446
@<TRIPOS>UNITY_ATOM_ATTR
37 1
charge -1
@<TRIPOS>BOND
     1    37    38   ar
     2    38    39   ar
     3    38    30    1
     4    30    31   ar
     5    31    32   ar
     6    32    33   ar
     7    33    26    1
     8    26    27   am
     9    27    28    2
    10    27     1    1
    11     1    20    1
    12    20    21    1
    13    21    22    1
    14    22    23    1
    15    23    24    1
    16    24    25    1
    17     1     2    1
    18     2     3   ar
    19     3    13    1
    20    13    14   ar
    21    14    15   ar
    22    15    16   ar
    23    16    17    1
    24    16    18   ar
    25    18    19   ar
    26     3     4   ar
    27     4     5   ar
    28     5     6   ar
    29     6     7   ar
    30     7     8    1
    31     7     9   ar
    32     9    10    1
    33     9    11   ar
    34    11    12   ar
    35    33    34   ar
    36    34    35    1
    37    34    36   ar
    38    36    30   ar
    39    25    20    1
    40    12     2   ar
    41    19    13   ar
    42    12     5   ar
    43    26    29    1
@<TRIPOS>MOLECULE
*****
 39 43 0 0 0
SMALL
GASTEIGER

@<TRIPOS>ATOM
      1 C         140.6044  141.0665  164.9244 C.3     1  UNL1        0.1631
      2 N         141.6451  141.5756  165.8772 N.ar    1  UNL1       -0.3047
      3 C         143.0018  142.0961  165.5052 C.ar    1  UNL1        0.1441
      4 N         143.7070  142.4958  166.7673 N.ar    1  UNL1       -0.2267
      5 C         142.7861  142.2223  167.9193 C.ar    1  UNL1        0.1010
      6 C         142.9434  142.4176  169.3982 C.ar    1  UNL1        0.0526
      7 C         141.8262  142.0442  170.3270 C.ar    1  UNL1        0.1690
      8 F         141.9835  142.2396  171.8059 F       1  UNL1       -0.2017
      9 C         140.5519  141.4755  169.7769 C.ar    1  UNL1        0.1689
     10 F         139.4348  141.1021  170.7057 F       1  UNL1       -0.2017
     11 C         140.3947  141.2802  168.2980 C.ar    1  UNL1        0.0507
     12 C         141.5118  141.6536  167.3692 C.ar    1  UNL1        0.0816
     13 C         143.5560  142.1989  164.1151 C.ar    1  UNL1        0.0342
     14 C         143.7433  143.5449  163.4800 C.ar    1  UNL1        0.0039
     15 C         144.2975  143.6477  162.0900 C.ar    1  UNL1        0.0115
     16 C         144.6643  142.4046  161.3350 C.ar    1  UNL1        0.0577
     17 CL        145.2185  142.5074  159.9449 Cl      1  UNL1       -0.0822
     18 C         144.4770  141.0586  161.9701 C.ar    1  UNL1        0.0115
     19 C         143.9229  140.9558  163.3601 C.ar    1  UNL1        0.0039
     20 C         139.8489  139.8098  165.2403 C.3     1  UNL1        0.0297
     21 C         138.5699  139.8797  166.0209 C.3     1  UNL1        0.0024
     22 C         137.8144  138.6230  166.3368 C.3     1  UNL1        0.0001
     23 C         138.3378  137.2963  165.8722 C.3     1  UNL1        0.0000
     24 C         139.6168  137.2263  165.0916 C.3     1  UNL1        0.0001
     25 C         140.3723  138.4831  164.7757 C.3     1  UNL1        0.0024
     26 N         140.4551  141.1231  162.3312 N.am    1  UNL1       -0.2806
     27 C         140.3193  141.8141  163.6556 C.2     1  UNL1        0.2469
     28 O         139.8983  143.2527  163.7112 O.2     1  UNL1       -0.2727
     29 H         140.7314  140.1788  162.2947 H       1  UNL1        0.1550
     30 C         139.5998  143.3661  158.5250 C.ar    1  UNL1        0.0163
     31 C         140.9647  143.4316  159.1436 C.ar    1  UNL1        0.0025
     32 C         141.2498  142.6839  160.4124 C.ar    1  UNL1        0.0170
     33 C         140.1699  141.8707  161.0625 C.ar    1  UNL1        0.0782
     34 C         138.8050  141.8052  160.4439 C.ar    1  UNL1        0.1535
     35 F         137.7252  140.9920  161.0940 F       1  UNL1       -0.2029
     36 C         138.5199  142.5529  159.1752 C.ar    1  UNL1        0.0320
     37 O         139.9922  145.4252  156.9900 O.co2   1  UNL1       -0.5446
     38 C         139.3146  144.1138  157.2563 C.2     1  UNL1        0.0729
     39 O         138.3517  143.5499  156.2538 O.co2   1  UNL1       -0.5446
@<TRIPOS>UNITY_ATOM_ATTR
37 1
charge -1
@<TRIPOS>BOND
     1    37    38   ar
     2    38    39   ar
     3    38    30    1
     4    30    31   ar
     5    31    32   ar
     6    32    33   ar
     7    33    26    1
     8    26    27   am
     9    27    28    2
    10    27     1    1
    11     1    20    1
    12    20    21    1
    13    21    22    1
    14    22    23    1
    15    23    24    1
    16    24    25    1
    17     1     2    1
    18     2     3   ar
    19     3    13    1
    20    13    14   ar
    21    14    15   ar
    22    15    16   ar
    23    16    17    1
    24    16    18   ar
    25    18    19   ar
    26     3     4   ar
    27     4     5   ar
    28     5     6   ar
    29     6     7   ar
    30     7     8    1
    31     7     9   ar
    32     9    10    1
    33     9    11   ar
    34    11    12   ar
    35    33    34   ar
    36    34    35    1
    37    34    36   ar
    38    36    30   ar
    39    25    20    1
    40    12     2   ar
    41    19    13   ar
    42    12     5   ar
    43    26    29    1
@<TRIPOS>MOLECULE
*****
 39 43 0 0 0
SMALL
GASTEIGER

@<TRIPOS>ATOM
      1 C         141.4959  141.0425  162.0777 C.3     1  UNL1        0.1631
      2 N         140.6903  139.8179  162.3960 N.ar    1  UNL1       -0.3047
      3 C         140.4108  138.6788  161.4610 C.ar    1  UNL1        0.1441
      4 N         139.5705  137.6743  162.1923 N.ar    1  UNL1       -0.2267
      5 C         139.3307  138.1926  163.5794 C.ar    1  UNL1        0.1010
      6 C         138.5716  137.6294  164.7440 C.ar    1  UNL1        0.0526
      7 C         138.5045  138.3910  166.0346 C.ar    1  UNL1        0.1690
      8 F         137.7453  137.8277  167.1993 F       1  UNL1       -0.2017
      9 C         139.1966  139.7158  166.1605 C.ar    1  UNL1        0.1689
     10 F         139.1295  140.4774  167.4510 F       1  UNL1       -0.2017
     11 C         139.9557  140.2791  164.9958 C.ar    1  UNL1        0.0507
     12 C         140.0228  139.5175  163.7053 C.ar    1  UNL1        0.0816
     13 C         140.8878  138.5644  160.0435 C.ar    1  UNL1        0.0342
     14 C         139.8948  138.4928  158.9215 C.ar    1  UNL1        0.0039
     15 C         140.3718  138.3783  157.5040 C.ar    1  UNL1        0.0115
     16 C         141.8417  138.3354  157.2085 C.ar    1  UNL1        0.0577
     17 CL        142.3187  138.2209  155.7909 Cl      1  UNL1       -0.0822
     18 C         142.8347  138.4070  158.3305 C.ar    1  UNL1        0.0115
     19 C         142.3578  138.5214  159.7479 C.ar    1  UNL1        0.0039
     20 C         142.8467  141.2346  162.7007 C.3     1  UNL1        0.0297
     21 C         143.3385  142.6165  163.0143 C.3     1  UNL1        0.0024
     22 C         144.6894  142.8084  163.6373 C.3     1  UNL1        0.0001
     23 C         145.5486  141.6185  163.9467 C.3     1  UNL1        0.0000
     24 C         145.0569  140.2365  163.6331 C.3     1  UNL1        0.0001
     25 C         143.7060  140.0445  163.0101 C.3     1  UNL1        0.0024
     26 N         141.6222  142.3167  159.8169 N.am    1  UNL1       -0.2806
     27 C         140.9505  142.0753  161.1362 C.2     1  UNL1        0.2469
     28 O         139.7335  142.8665  161.5141 O.2     1  UNL1       -0.2727
     29 H         142.4210  141.7973  159.5689 H       1  UNL1        0.1550
     30 C         139.9862  145.4148  156.9929 C.ar    1  UNL1        0.0163
     31 C         141.0716  145.7812  157.9612 C.ar    1  UNL1        0.0025
     32 C         141.6169  144.7485  158.9026 C.ar    1  UNL1        0.0170
     33 C         141.0769  143.3493  158.8756 C.ar    1  UNL1        0.0782
     34 C         139.9916  142.9829  157.9072 C.ar    1  UNL1        0.1535
     35 F         139.4515  141.5837  157.8801 F       1  UNL1       -0.2029
     36 C         139.4463  144.0156  156.9659 C.ar    1  UNL1        0.0320
     37 O         139.3781  146.1626  154.5802 O.co2   1  UNL1       -0.5446
     38 C         139.4409  146.4475  156.0515 C.2     1  UNL1        0.0729
     39 O         138.9583  147.7651  156.5816 O.co2   1  UNL1       -0.5446
@<TRIPOS>UNITY_ATOM_ATTR
37 1
charge -1
@<TRIPOS>BOND
     1    37    38   ar
     2    38    39   ar
     3    38    30    1
     4    30    31   ar
     5    31    32   ar
     6    32    33   ar
     7    33    26    1
     8    26    27   am
     9    27    28    2
    10    27     1    1
    11     1    20    1
    12    20    21    1
    13    21    22    1
    14    22    23    1
    15    23    24    1
    16    24    25    1
    17     1     2    1
    18     2     3   ar
    19     3    13    1
    20    13    14   ar
    21    14    15   ar
    22    15    16   ar
    23    16    17    1
    24    16    18   ar
    25    18    19   ar
    26     3     4   ar
    27     4     5   ar
    28     5     6   ar
    29     6     7   ar
    30     7     8    1
    31     7     9   ar
    32     9    10    1
    33     9    11   ar
    34    11    12   ar
    35    33    34   ar
    36    34    35    1
    37    34    36   ar
    38    36    30   ar
    39    25    20    1
    40    12     2   ar
    41    19    13   ar
    42    12     5   ar
    43    26    29    1
@<TRIPOS>MOLECULE
*****
 39 43 0 0 0
SMALL
GASTEIGER

@<TRIPOS>ATOM
      1 C         142.7554  139.3013  158.8377 C.3     1  UNL1        0.1631
      2 N         141.5920  138.7203  158.0901 N.ar    1  UNL1       -0.3047
      3 C         140.1535  139.1117  158.2556 C.ar    1  UNL1        0.1441
      4 N         139.3353  138.2792  157.3135 N.ar    1  UNL1       -0.2267
      5 C         140.2682  137.3734  156.5657 C.ar    1  UNL1        0.1010
      6 C         140.0279  136.3355  155.5097 C.ar    1  UNL1        0.0526
      7 C         141.1823  135.5703  154.9337 C.ar    1  UNL1        0.1690
      8 F         140.9419  134.5324  153.8777 F       1  UNL1       -0.2017
      9 C         142.5770  135.8429  155.4137 C.ar    1  UNL1        0.1689
     10 F         143.7315  135.0777  154.8377 F       1  UNL1       -0.2017
     11 C         142.8174  136.8808  156.4696 C.ar    1  UNL1        0.0507
     12 C         141.6630  137.6460  157.0457 C.ar    1  UNL1        0.0816
     13 C         139.6257  140.1527  159.1978 C.ar    1  UNL1        0.0342
     14 C         139.5802  141.5915  158.7765 C.ar    1  UNL1        0.0039
     15 C         139.0525  142.6326  159.7187 C.ar    1  UNL1        0.0115
     16 C         138.5704  142.2347  161.0822 C.ar    1  UNL1        0.0577
     17 CL        138.0426  143.2758  162.0244 Cl      1  UNL1       -0.0822
     18 C         138.6159  140.7958  161.5035 C.ar    1  UNL1        0.0115
     19 C         139.1436  139.7548  160.5614 C.ar    1  UNL1        0.0039
     20 C         143.6453  140.3099  158.1740 C.3     1  UNL1        0.0297
     21 C         144.0164  141.5722  158.8945 C.3     1  UNL1        0.0024
     22 C         144.9063  142.5808  158.2307 C.3     1  UNL1        0.0001
     23 C         145.4252  142.3272  156.8464 C.3     1  UNL1        0.0000
     24 C         145.0542  141.0650  156.1258 C.3     1  UNL1        0.0001
     25 C         144.1643  140.0564  156.7896 C.3     1  UNL1        0.0024
     26 N         142.6457  139.7674  161.3914 N.am    1  UNL1       -0.2806
     27 C         143.0289  138.8736  160.2493 C.2     1  UNL1        0.2469
     28 O         143.6855  137.5522  160.5187 O.2     1  UNL1       -0.2727
     29 H         142.2147  140.6348  161.2145 H       1  UNL1        0.1550
     30 C         143.4660  138.4842  165.6258 C.ar    1  UNL1        0.0163
     31 C         142.1683  138.1174  164.9690 C.ar    1  UNL1        0.0025
     32 C         141.8949  138.5452  163.5575 C.ar    1  UNL1        0.0170
     33 C         142.9192  139.3397  162.8028 C.ar    1  UNL1        0.0782
     34 C         144.2169  139.7065  163.4596 C.ar    1  UNL1        0.1535
     35 F         145.2412  140.5010  162.7049 F       1  UNL1       -0.2029
     36 C         144.4903  139.2787  164.8710 C.ar    1  UNL1        0.0320
     37 O         144.6430  136.8896  167.3057 O.co2   1  UNL1       -0.5446
     38 C         143.7395  138.0565  167.0373 C.2     1  UNL1        0.0729
     39 O         143.1095  138.7957  168.1803 O.co2   1  UNL1       -0.5446
@<TRIPOS>UNITY_ATOM_ATTR
37 1
charge -1
@<TRIPOS>BOND
     1    37    38   ar
     2    38    39   ar
     3    38    30    1
     4    30    31   ar
     5    31    32   ar
     6    32    33   ar
     7    33    26    1
     8    26    27   am
     9    27    28    2
    10    27     1    1
    11     1    20    1
    12    20    21    1
    13    21    22    1
    14    22    23    1
    15    23    24    1
    16    24    25    1
    17     1     2    1
    18     2     3   ar
    19     3    13    1
    20    13    14   ar
    21    14    15   ar
    22    15    16   ar
    23    16    17    1
    24    16    18   ar
    25    18    19   ar
    26     3     4   ar
    27     4     5   ar
    28     5     6   ar
    29     6     7   ar
    30     7     8    1
    31     7     9   ar
    32     9    10    1
    33     9    11   ar
    34    11    12   ar
    35    33    34   ar
    36    34    35    1
    37    34    36   ar
    38    36    30   ar
    39    25    20    1
    40    12     2   ar
    41    19    13   ar
    42    12     5   ar
    43    26    29    1
@<TRIPOS>MOLECULE
*****
 39 43 0 0 0
SMALL
GASTEIGER

@<TRIPOS>ATOM
      1 C         140.0247  140.1396  159.2554 C.3     1  UNL1        0.1631
      2 N         140.0471  141.5462  158.7347 N.ar    1  UNL1       -0.3047
      3 C         140.9885  142.6312  159.1663 C.ar    1  UNL1        0.1441
      4 N         140.6553  143.8702  158.3893 N.ar    1  UNL1       -0.2267
      5 C         139.5078  143.5509  157.4775 C.ar    1  UNL1        0.1010
      6 C         138.7567  144.3825  156.4804 C.ar    1  UNL1        0.0526
      7 C         137.6296  143.7778  155.6967 C.ar    1  UNL1        0.1690
      8 F         136.8785  144.6094  154.6996 F       1  UNL1       -0.2017
      9 C         137.2537  142.3414  155.9102 C.ar    1  UNL1        0.1689
     10 F         136.1267  141.7366  155.1265 F       1  UNL1       -0.2017
     11 C         138.0049  141.5098  156.9073 C.ar    1  UNL1        0.0507
     12 C         139.1319  142.1146  157.6909 C.ar    1  UNL1        0.0816
     13 C         142.0729  142.5002  160.1944 C.ar    1  UNL1        0.0342
     14 C         141.8420  142.9874  161.5941 C.ar    1  UNL1        0.0039
     15 C         142.9264  142.8563  162.6222 C.ar    1  UNL1        0.0115
     16 C         144.2415  142.2382  162.2506 C.ar    1  UNL1        0.0577
     17 CL        145.3259  142.1073  163.2788 Cl      1  UNL1       -0.0822
     18 C         144.4724  141.7511  160.8508 C.ar    1  UNL1        0.0115
     19 C         143.3881  141.8821  159.8227 C.ar    1  UNL1        0.0039
     20 C         140.6121  139.0277  158.4379 C.3     1  UNL1        0.0297
     21 C         139.7590  138.2950  157.4453 C.3     1  UNL1        0.0024
     22 C         140.3466  137.1830  156.6278 C.3     1  UNL1        0.0001
     23 C         141.7872  136.8038  156.8028 C.3     1  UNL1        0.0000
     24 C         142.6404  137.5365  157.7954 C.3     1  UNL1        0.0001
     25 C         142.0529  138.6484  158.6129 C.3     1  UNL1        0.0024
     26 N         140.2786  139.8062  161.8195 N.am    1  UNL1       -0.2806
     27 C         139.4147  139.8450  160.5938 C.2     1  UNL1        0.2469
     28 O         137.9410  139.5892  160.7065 O.2     1  UNL1       -0.2727
     29 H         141.2459  139.9741  161.7456 H       1  UNL1        0.1550
     30 C         138.4487  138.9221  165.8345 C.ar    1  UNL1        0.0163
     31 C         138.9027  137.7966  164.9530 C.ar    1  UNL1        0.0025
     32 C         139.5127  138.0913  163.6146 C.ar    1  UNL1        0.0170
     33 C         139.6686  139.5116  163.1578 C.ar    1  UNL1        0.0782
     34 C         139.2147  140.6371  164.0394 C.ar    1  UNL1        0.1535
     35 F         139.3707  142.0573  163.5826 F       1  UNL1       -0.2029
     36 C         138.6047  140.3424  165.3777 C.ar    1  UNL1        0.0320
     37 O         138.3653  139.3057  168.4028 O.co2   1  UNL1       -0.5446
     38 C         137.8388  138.6275  167.1728 C.2     1  UNL1        0.0729
     39 O         136.7022  137.6547  167.2812 O.co2   1  UNL1       -0.5446
@<TRIPOS>UNITY_ATOM_ATTR
37 1
charge -1
@<TRIPOS>BOND
     1    37    38   ar
     2    38    39   ar
     3    38    30    1
     4    30    31   ar
     5    31    32   ar
     6    32    33   ar
     7    33    26    1
     8    26    27   am
     9    27    28    2
    10    27     1    1
    11     1    20    1
    12    20    21    1
    13    21    22    1
    14    22    23    1
    15    23    24    1
    16    24    25    1
    17     1     2    1
    18     2     3   ar
    19     3    13    1
    20    13    14   ar
    21    14    15   ar
    22    15    16   ar
    23    16    17    1
    24    16    18   ar
    25    18    19   ar
    26     3     4   ar
    27     4     5   ar
    28     5     6   ar
    29     6     7   ar
    30     7     8    1
    31     7     9   ar
    32     9    10    1
    33     9    11   ar
    34    11    12   ar
    35    33    34   ar
    36    34    35    1
    37    34    36   ar
    38    36    30   ar
    39    25    20    1
    40    12     2   ar
    41    19    13   ar
    42    12     5   ar
    43    26    29    1
@<TRIPOS>MOLECULE
*****
 39 43 0 0 0
SMALL
GASTEIGER

@<TRIPOS>ATOM
      1 C         143.1158  141.6905  160.2665 C.3     1  UNL1        0.1631
      2 N         141.6183  141.6027  160.2630 N.ar    1  UNL1       -0.3047
      3 C         140.7904  140.6942  159.4033 C.ar    1  UNL1        0.1441
      4 N         139.3463  140.9381  159.7276 N.ar    1  UNL1       -0.2267
      5 C         139.2818  141.9973  160.7877 C.ar    1  UNL1        0.1010
      6 C         138.1258  142.6408  161.4945 C.ar    1  UNL1        0.0526
      7 C         138.3740  143.6951  162.5323 C.ar    1  UNL1        0.1690
      8 F         137.2179  144.3386  163.2391 F       1  UNL1       -0.2017
      9 C         139.7782  144.1059  162.8632 C.ar    1  UNL1        0.1689
     10 F         140.0264  145.1602  163.9010 F       1  UNL1       -0.2017
     11 C         140.9342  143.4624  162.1564 C.ar    1  UNL1        0.0507
     12 C         140.6860  142.4081  161.1187 C.ar    1  UNL1        0.0816
     13 C         141.3146  139.7140  158.3961 C.ar    1  UNL1        0.0342
     14 C         142.0211  138.4729  158.8547 C.ar    1  UNL1        0.0039
     15 C         142.5452  137.4927  157.8475 C.ar    1  UNL1        0.0115
     16 C         142.3629  137.7536  156.3818 C.ar    1  UNL1        0.0577
     17 CL        142.8871  136.7733  155.3746 Cl      1  UNL1       -0.0822
     18 C         141.6563  138.9947  155.9231 C.ar    1  UNL1        0.0115
     19 C         141.1322  139.9750  156.9302 C.ar    1  UNL1        0.0039
     20 C         143.8843  141.3473  161.5080 C.3     1  UNL1        0.0297
     21 C         143.7293  139.9940  162.1361 C.3     1  UNL1        0.0024
     22 C         144.4979  139.6509  163.3777 C.3     1  UNL1        0.0001
     23 C         145.4216  140.6610  163.9912 C.3     1  UNL1        0.0000
     24 C         145.5767  142.0144  163.3631 C.3     1  UNL1        0.0001
     25 C         144.8080  142.3575  162.1216 C.3     1  UNL1        0.0024
     26 N         144.6517  141.1262  158.2483 N.am    1  UNL1       -0.2806
     27 C         143.8447  142.1214  159.0283 C.2     1  UNL1        0.2469
     28 O         143.7667  143.5476  158.5701 O.2     1  UNL1       -0.2727
     29 H         144.7029  140.1901  158.5490 H       1  UNL1        0.1550
     30 C         146.8382  142.4191  154.5338 C.ar    1  UNL1        0.0163
     31 C         145.6684  141.4860  154.4291 C.ar    1  UNL1        0.0025
     32 C         144.9395  141.0551  155.6673 C.ar    1  UNL1        0.0170
     33 C         145.3805  141.5572  157.0102 C.ar    1  UNL1        0.0782
     34 C         146.5503  142.4902  157.1150 C.ar    1  UNL1        0.1535
     35 F         146.9913  142.9924  158.4579 F       1  UNL1       -0.2029
     36 C         147.2791  142.9212  155.8768 C.ar    1  UNL1        0.0320
     37 O         148.4140  144.0879  153.3165 O.co2   1  UNL1       -0.5446
     38 C         147.5670  142.8501  153.2957 C.2     1  UNL1        0.0729
     39 O         147.4489  142.0432  152.0367 O.co2   1  UNL1       -0.5446
@<TRIPOS>UNITY_ATOM_ATTR
37 1
charge -1
@<TRIPOS>BOND
     1    37    38   ar
     2    38    39   ar
     3    38    30    1
     4    30    31   ar
     5    31    32   ar
     6    32    33   ar
     7    33    26    1
     8    26    27   am
     9    27    28    2
    10    27     1    1
    11     1    20    1
    12    20    21    1
    13    21    22    1
    14    22    23    1
    15    23    24    1
    16    24    25    1
    17     1     2    1
    18     2     3   ar
    19     3    13    1
    20    13    14   ar
    21    14    15   ar
    22    15    16   ar
    23    16    17    1
    24    16    18   ar
    25    18    19   ar
    26     3     4   ar
    27     4     5   ar
    28     5     6   ar
    29     6     7   ar
    30     7     8    1
    31     7     9   ar
    32     9    10    1
    33     9    11   ar
    34    11    12   ar
    35    33    34   ar
    36    34    35    1
    37    34    36   ar
    38    36    30   ar
    39    25    20    1
    40    12     2   ar
    41    19    13   ar
    42    12     5   ar
    43    26    29    1
