@<TRIPOS>MOLECULE
*****
 34 38 0 0 0
SMALL
GASTEIGER

@<TRIPOS>ATOM
      1 C         141.6577  138.5808  161.8373 C.ar    1  UNL1        0.0541
      2 C         142.9541  137.8587  161.6185 C.ar    1  UNL1        0.0180
      3 C         143.4080  137.5376  160.2253 C.ar    1  UNL1        0.0382
      4 C         142.5655  137.9388  159.0509 C.ar    1  UNL1        0.1385
      5 C         141.2691  138.6609  159.2697 C.ar    1  UNL1        0.0382
      6 C         140.8152  138.9820  160.6628 C.ar    1  UNL1        0.0180
      7 O         138.5609  139.2866  167.9333 O.2     1  UNL1       -0.2699
      8 C         139.8421  139.8650  167.4099 C.2     1  UNL1        0.2494
      9 N         140.2960  139.5440  166.0168 N.am    1  UNL1       -0.2660
     10 C         141.5772  140.1224  165.4933 C.3     1  UNL1        0.1160
     11 C         142.0311  139.8013  164.1001 C.3     1  UNL1        0.1197
     12 N         141.2038  138.9019  163.2304 N.am    1  UNL1       -0.2555
     13 C         139.9226  138.3234  163.7538 C.2     1  UNL1        0.2497
     14 O         139.0953  137.4239  162.8841 O.2     1  UNL1       -0.2727
     15 C         139.4687  138.6444  165.1469 C.3     1  UNL1        0.1799
     16 C         140.6694  140.7645  168.2797 C.ar    1  UNL1        0.0536
     17 C         140.3701  142.2331  168.3390 C.ar    1  UNL1        0.0054
     18 C         141.1974  143.1326  169.2088 C.ar    1  UNL1        0.0115
     19 C         142.3240  142.5634  170.0192 C.ar    1  UNL1        0.0577
     20 CL        143.1513  143.4630  170.8891 Cl      1  UNL1       -0.0822
     21 C         142.6233  141.0948  169.9599 C.ar    1  UNL1        0.0115
     22 C         141.7960  140.1954  169.0901 C.ar    1  UNL1        0.0054
     23 O         143.0194  137.6177  157.6578 O.3     1  UNL1       -0.4791
     24 C         142.6926  136.2855  157.0508 C.3     1  UNL1        0.1687
     25 C         141.6455  136.1851  155.9815 C.3     1  UNL1        0.0609
     26 C         141.3188  134.8529  155.3745 C.3     1  UNL1        0.0758
     27 N         142.0391  133.6211  155.8368 N.3     1  UNL1       -0.2737
     28 C         143.0863  133.7215  156.9061 C.3     1  UNL1        0.0758
     29 C         143.4131  135.0537  157.5131 C.3     1  UNL1        0.0609
     30 C         141.7124  132.2889  155.2298 C.3     1  UNL1        0.0575
     31 C         142.1721  130.9533  155.7348 C.3     1  UNL1        0.0160
     32 C         141.6124  129.8973  154.8283 C.3     1  UNL1        0.0014
     33 C         140.8067  130.5802  153.7631 C.3     1  UNL1        0.0014
     34 C         140.8686  132.0583  154.0113 C.3     1  UNL1        0.0160
@<TRIPOS>BOND
     1     7     8    2
     2     8    16    1
     3    16    17   ar
     4    17    18   ar
     5    18    19   ar
     6    19    20    1
     7    19    21   ar
     8    21    22   ar
     9     8     9   am
    10     9    10    1
    11    10    11    1
    12    11    12    1
    13    12     1    1
    14     1     2   ar
    15     2     3   ar
    16     3     4   ar
    17     4    23    1
    18    23    24    1
    19    24    25    1
    20    25    26    1
    21    26    27    1
    22    27    30    1
    23    30    31    1
    24    31    32    1
    25    32    33    1
    26    33    34    1
    27    27    28    1
    28    28    29    1
    29     4     5   ar
    30     5     6   ar
    31    12    13   am
    32    13    14    2
    33    13    15    1
    34    22    16   ar
    35    15     9    1
    36     6     1   ar
    37    29    24    1
    38    34    30    1
@<TRIPOS>MOLECULE
*****
 34 38 0 0 0
SMALL
GASTEIGER

@<TRIPOS>ATOM
      1 C         140.5831  138.3575  158.4538 C.ar    1  UNL1        0.0541
      2 C         142.0741  138.3989  158.2951 C.ar    1  UNL1        0.0180
      3 C         142.7204  137.7482  157.1081 C.ar    1  UNL1        0.0382
      4 C         141.8756  137.0562  156.0798 C.ar    1  UNL1        0.1385
      5 C         140.3846  137.0148  156.2384 C.ar    1  UNL1        0.0382
      6 C         139.7384  137.6655  157.4254 C.ar    1  UNL1        0.0180
      7 O         136.7979  141.8399  163.0139 O.2     1  UNL1       -0.2699
      8 C         137.9981  140.9601  163.2018 C.2     1  UNL1        0.2494
      9 N         138.6444  140.3095  162.0148 N.am    1  UNL1       -0.2660
     10 C         139.8446  139.4297  162.2028 C.3     1  UNL1        0.1160
     11 C         140.4909  138.7790  161.0157 C.3     1  UNL1        0.1197
     12 N         139.9369  139.0082  159.6408 N.am    1  UNL1       -0.2555
     13 C         138.7366  139.8880  159.4528 C.2     1  UNL1        0.2497
     14 O         138.1826  140.1171  158.0779 O.2     1  UNL1       -0.2727
     15 C         138.0904  140.5386  160.6398 C.3     1  UNL1        0.1799
     16 C         138.5521  140.7310  164.5769 C.ar    1  UNL1        0.0536
     17 C         139.5142  141.7162  165.1716 C.ar    1  UNL1        0.0054
     18 C         140.0681  141.4871  166.5466 C.ar    1  UNL1        0.0115
     19 C         139.6601  140.2727  167.3268 C.ar    1  UNL1        0.0577
     20 CL        140.2141  140.0435  168.7018 Cl      1  UNL1       -0.0822
     21 C         138.6980  139.2874  166.7320 C.ar    1  UNL1        0.0115
     22 C         138.1441  139.5166  165.3571 C.ar    1  UNL1        0.0054
     23 O         142.5219  136.4055  154.8928 O.3     1  UNL1       -0.4791
     24 C         142.9250  134.9621  154.9557 C.3     1  UNL1        0.1687
     25 C         143.8386  134.4853  156.0456 C.3     1  UNL1        0.0609
     26 C         144.2417  133.0419  156.1085 C.3     1  UNL1        0.0758
     27 N         143.7311  132.0751  155.0815 N.3     1  UNL1       -0.2737
     28 C         142.8174  132.5519  153.9916 C.3     1  UNL1        0.0758
     29 C         142.4143  133.9953  153.9286 C.3     1  UNL1        0.0609
     30 C         144.1342  130.6317  155.1444 C.3     1  UNL1        0.0575
     31 C         144.5874  129.7916  153.9873 C.3     1  UNL1        0.0160
     32 C         144.8881  128.4156  154.5033 C.3     1  UNL1        0.0014
     33 C         144.6209  128.4053  155.9792 C.3     1  UNL1        0.0014
     34 C         144.1549  129.7749  156.3755 C.3     1  UNL1        0.0160
@<TRIPOS>BOND
     1     7     8    2
     2     8    16    1
     3    16    17   ar
     4    17    18   ar
     5    18    19   ar
     6    19    20    1
     7    19    21   ar
     8    21    22   ar
     9     8     9   am
    10     9    10    1
    11    10    11    1
    12    11    12    1
    13    12     1    1
    14     1     2   ar
    15     2     3   ar
    16     3     4   ar
    17     4    23    1
    18    23    24    1
    19    24    25    1
    20    25    26    1
    21    26    27    1
    22    27    30    1
    23    30    31    1
    24    31    32    1
    25    32    33    1
    26    33    34    1
    27    27    28    1
    28    28    29    1
    29     4     5   ar
    30     5     6   ar
    31    12    13   am
    32    13    14    2
    33    13    15    1
    34    22    16   ar
    35    15     9    1
    36     6     1   ar
    37    29    24    1
    38    34    30    1
@<TRIPOS>MOLECULE
*****
 34 38 0 0 0
SMALL
GASTEIGER

@<TRIPOS>ATOM
      1 C         140.7972  139.9267  160.4475 C.ar    1  UNL1        0.0541
      2 C         141.9931  140.2090  159.5872 C.ar    1  UNL1        0.0180
      3 C         142.1172  139.5618  158.2397 C.ar    1  UNL1        0.0382
      4 C         141.0455  138.6323  157.7525 C.ar    1  UNL1        0.1385
      5 C         139.8496  138.3500  158.6127 C.ar    1  UNL1        0.0382
      6 C         139.7254  138.9971  159.9602 C.ar    1  UNL1        0.0180
      7 O         139.5348  143.7965  165.9865 O.2     1  UNL1       -0.2699
      8 C         140.3004  142.5152  165.8375 C.2     1  UNL1        0.2494
      9 N         140.4246  141.8681  164.4900 N.am    1  UNL1       -0.2660
     10 C         141.1902  140.5868  164.3410 C.3     1  UNL1        0.1160
     11 C         141.3144  139.9397  162.9934 C.3     1  UNL1        0.1197
     12 N         140.6730  140.5738  161.7950 N.am    1  UNL1       -0.2555
     13 C         139.9073  141.8551  161.9440 C.2     1  UNL1        0.2497
     14 O         139.2659  142.4892  160.7455 O.2     1  UNL1       -0.2727
     15 C         139.7831  142.5022  163.2914 C.3     1  UNL1        0.1799
     16 C         140.9419  141.8811  167.0361 C.ar    1  UNL1        0.0536
     17 C         140.1962  140.8475  167.8269 C.ar    1  UNL1        0.0054
     18 C         140.8377  140.2134  169.0254 C.ar    1  UNL1        0.0115
     19 C         142.2248  140.6130  169.4331 C.ar    1  UNL1        0.0577
     20 CL        142.8663  139.9789  170.6316 Cl      1  UNL1       -0.0822
     21 C         142.9705  141.6467  168.6422 C.ar    1  UNL1        0.0115
     22 C         142.3290  142.2807  167.4437 C.ar    1  UNL1        0.0054
     23 O         141.1697  137.9852  156.4050 O.3     1  UNL1       -0.4791
     24 C         141.6816  136.5797  156.2923 C.3     1  UNL1        0.1687
     25 C         142.8769  136.1506  157.0904 C.3     1  UNL1        0.0609
     26 C         143.3888  134.7452  156.9776 C.3     1  UNL1        0.0758
     27 N         142.7053  133.7688  156.0668 N.3     1  UNL1       -0.2737
     28 C         141.5099  134.1980  155.2686 C.3     1  UNL1        0.0758
     29 C         140.9981  135.6034  155.3813 C.3     1  UNL1        0.0609
     30 C         143.2172  132.3634  155.9541 C.3     1  UNL1        0.0575
     31 C         144.6567  131.9434  155.9949 C.3     1  UNL1        0.0160
     32 C         144.7086  130.4516  155.8468 C.3     1  UNL1        0.0014
     33 C         143.3013  129.9496  155.7144 C.3     1  UNL1        0.0014
     34 C         142.3796  131.1312  155.7806 C.3     1  UNL1        0.0160
@<TRIPOS>BOND
     1     7     8    2
     2     8    16    1
     3    16    17   ar
     4    17    18   ar
     5    18    19   ar
     6    19    20    1
     7    19    21   ar
     8    21    22   ar
     9     8     9   am
    10     9    10    1
    11    10    11    1
    12    11    12    1
    13    12     1    1
    14     1     2   ar
    15     2     3   ar
    16     3     4   ar
    17     4    23    1
    18    23    24    1
    19    24    25    1
    20    25    26    1
    21    26    27    1
    22    27    30    1
    23    30    31    1
    24    31    32    1
    25    32    33    1
    26    33    34    1
    27    27    28    1
    28    28    29    1
    29     4     5   ar
    30     5     6   ar
    31    12    13   am
    32    13    14    2
    33    13    15    1
    34    22    16   ar
    35    15     9    1
    36     6     1   ar
    37    29    24    1
    38    34    30    1
@<TRIPOS>MOLECULE
*****
 34 38 0 0 0
SMALL
GASTEIGER

@<TRIPOS>ATOM
      1 C         142.2777  143.7929  159.8995 C.ar    1  UNL1        0.0541
      2 C         141.9512  144.1228  161.3259 C.ar    1  UNL1        0.0180
      3 C         142.7759  143.5440  162.4372 C.ar    1  UNL1        0.0382
      4 C         143.9270  142.6354  162.1221 C.ar    1  UNL1        0.1385
      5 C         144.2535  142.3055  160.6957 C.ar    1  UNL1        0.0382
      6 C         143.4288  142.8842  159.5844 C.ar    1  UNL1        0.0180
      7 O         137.7647  145.3773  154.9627 O.2     1  UNL1       -0.2699
      8 C         138.9791  146.1077  155.4543 C.2     1  UNL1        0.2494
      9 N         139.8037  145.5290  156.5656 N.am    1  UNL1       -0.2660
     10 C         141.0181  146.2595  157.0571 C.3     1  UNL1        0.1160
     11 C         141.8428  145.6807  158.1685 C.3     1  UNL1        0.1197
     12 N         141.4530  144.3716  158.7882 N.am    1  UNL1       -0.2555
     13 C         140.2386  143.6411  158.2966 C.2     1  UNL1        0.2497
     14 O         139.8489  142.3319  158.9164 O.2     1  UNL1       -0.2727
     15 C         139.4140  144.2198  157.1854 C.3     1  UNL1        0.1799
     16 C         139.3688  147.4170  154.8345 C.ar    1  UNL1        0.0536
     17 C         140.2988  147.4424  153.6579 C.ar    1  UNL1        0.0054
     18 C         140.6885  148.7516  153.0381 C.ar    1  UNL1        0.0115
     19 C         140.1482  150.0354  153.5950 C.ar    1  UNL1        0.0577
     20 CL        140.5380  151.3446  152.9752 Cl      1  UNL1       -0.0822
     21 C         139.2183  150.0099  154.7716 C.ar    1  UNL1        0.0115
     22 C         138.8286  148.7007  155.3914 C.ar    1  UNL1        0.0054
     23 O         144.7517  142.0567  163.2334 O.3     1  UNL1       -0.4791
     24 C         144.1107  141.7240  164.5481 C.3     1  UNL1        0.1687
     25 C         143.6146  140.3329  164.8099 C.3     1  UNL1        0.0609
     26 C         142.9736  140.0002  166.1247 C.3     1  UNL1        0.0758
     27 N         142.8288  141.0587  167.1776 N.3     1  UNL1       -0.2737
     28 C         143.3249  142.4499  166.9158 C.3     1  UNL1        0.0758
     29 C         143.9659  142.7826  165.6011 C.3     1  UNL1        0.0609
     30 C         142.1878  140.7260  168.4923 C.3     1  UNL1        0.0575
     31 C         142.8062  140.9107  169.8465 C.3     1  UNL1        0.0160
     32 C         141.8165  140.4491  170.8748 C.3     1  UNL1        0.0014
     33 C         140.5865  139.9791  170.1562 C.3     1  UNL1        0.0014
     34 C         140.8161  140.1502  168.6838 C.3     1  UNL1        0.0160
@<TRIPOS>BOND
     1     7     8    2
     2     8    16    1
     3    16    17   ar
     4    17    18   ar
     5    18    19   ar
     6    19    20    1
     7    19    21   ar
     8    21    22   ar
     9     8     9   am
    10     9    10    1
    11    10    11    1
    12    11    12    1
    13    12     1    1
    14     1     2   ar
    15     2     3   ar
    16     3     4   ar
    17     4    23    1
    18    23    24    1
    19    24    25    1
    20    25    26    1
    21    26    27    1
    22    27    30    1
    23    30    31    1
    24    31    32    1
    25    32    33    1
    26    33    34    1
    27    27    28    1
    28    28    29    1
    29     4     5   ar
    30     5     6   ar
    31    12    13   am
    32    13    14    2
    33    13    15    1
    34    22    16   ar
    35    15     9    1
    36     6     1   ar
    37    29    24    1
    38    34    30    1
@<TRIPOS>MOLECULE
*****
 34 38 0 0 0
SMALL
GASTEIGER

@<TRIPOS>ATOM
      1 C         142.6905  140.6417  159.3862 C.ar    1  UNL1        0.0541
      2 C         141.4361  141.3536  159.7978 C.ar    1  UNL1        0.0180
      3 C         141.4770  142.3670  160.9031 C.ar    1  UNL1        0.0382
      4 C         142.7724  142.6683  161.5967 C.ar    1  UNL1        0.1385
      5 C         144.0269  141.9564  161.1851 C.ar    1  UNL1        0.0382
      6 C         143.9860  140.9431  160.0799 C.ar    1  UNL1        0.0180
      7 O         142.4591  137.0395  153.5364 O.2     1  UNL1       -0.2699
      8 C         142.5269  136.5884  154.9653 C.2     1  UNL1        0.2494
      9 N         142.5678  137.6017  156.0705 N.am    1  UNL1       -0.2660
     10 C         142.6356  137.1507  157.4995 C.3     1  UNL1        0.1160
     11 C         142.6765  138.1640  158.6047 C.3     1  UNL1        0.1197
     12 N         142.6496  139.6284  158.2810 N.am    1  UNL1       -0.2555
     13 C         142.5818  140.0795  156.8520 C.2     1  UNL1        0.2497
     14 O         142.5549  141.5438  156.5283 O.2     1  UNL1       -0.2727
     15 C         142.5409  139.0662  155.7468 C.3     1  UNL1        0.1799
     16 C         142.5538  135.1240  155.2891 C.ar    1  UNL1        0.0536
     17 C         141.3112  134.2984  155.1330 C.ar    1  UNL1        0.0054
     18 C         141.3382  132.8341  155.4568 C.ar    1  UNL1        0.0115
     19 C         142.6077  132.1952  155.9365 C.ar    1  UNL1        0.0577
     20 CL        142.6346  130.7308  156.2602 Cl      1  UNL1       -0.0822
     21 C         143.8503  133.0208  156.0925 C.ar    1  UNL1        0.0115
     22 C         143.8234  134.4852  155.7688 C.ar    1  UNL1        0.0054
     23 O         142.8133  143.6816  162.7019 O.3     1  UNL1       -0.4791
     24 C         142.2464  143.3451  164.0492 C.3     1  UNL1        0.1687
     25 C         143.0877  142.6197  165.0571 C.3     1  UNL1        0.0609
     26 C         142.5208  142.2833  166.4044 C.3     1  UNL1        0.0758
     27 N         141.1125  142.6723  166.7439 N.3     1  UNL1       -0.2737
     28 C         140.2710  143.3977  165.7361 C.3     1  UNL1        0.0758
     29 C         140.8380  143.7342  164.3887 C.3     1  UNL1        0.0609
     30 C         140.5455  142.3358  168.0913 C.3     1  UNL1        0.0575
     31 C         140.4695  143.2588  169.2714 C.3     1  UNL1        0.0160
     32 C         139.8320  142.5107  170.4046 C.3     1  UNL1        0.0014
     33 C         139.5141  141.1255  169.9249 C.3     1  UNL1        0.0014
     34 C         139.9551  141.0174  168.4952 C.3     1  UNL1        0.0160
@<TRIPOS>BOND
     1     7     8    2
     2     8    16    1
     3    16    17   ar
     4    17    18   ar
     5    18    19   ar
     6    19    20    1
     7    19    21   ar
     8    21    22   ar
     9     8     9   am
    10     9    10    1
    11    10    11    1
    12    11    12    1
    13    12     1    1
    14     1     2   ar
    15     2     3   ar
    16     3     4   ar
    17     4    23    1
    18    23    24    1
    19    24    25    1
    20    25    26    1
    21    26    27    1
    22    27    30    1
    23    30    31    1
    24    31    32    1
    25    32    33    1
    26    33    34    1
    27    27    28    1
    28    28    29    1
    29     4     5   ar
    30     5     6   ar
    31    12    13   am
    32    13    14    2
    33    13    15    1
    34    22    16   ar
    35    15     9    1
    36     6     1   ar
    37    29    24    1
    38    34    30    1
@<TRIPOS>MOLECULE
*****
 34 38 0 0 0
SMALL
GASTEIGER

@<TRIPOS>ATOM
      1 C         142.1709  138.6543  159.6981 C.ar    1  UNL1        0.0541
      2 C         143.4388  139.4551  159.7329 C.ar    1  UNL1        0.0180
      3 C         144.1971  139.6035  161.0187 C.ar    1  UNL1        0.0382
      4 C         143.6875  138.9512  162.2695 C.ar    1  UNL1        0.1385
      5 C         142.4196  138.1504  162.2347 C.ar    1  UNL1        0.0382
      6 C         141.6613  138.0019  160.9490 C.ar    1  UNL1        0.0180
      7 O         139.5443  137.0133  153.5615 O.2     1  UNL1       -0.2699
      8 C         139.1378  138.0606  154.5554 C.2     1  UNL1        0.2494
      9 N         139.8961  138.2091  155.8411 N.am    1  UNL1       -0.2660
     10 C         139.4895  139.2564  156.8350 C.3     1  UNL1        0.1160
     11 C         140.2479  139.4048  158.1207 C.3     1  UNL1        0.1197
     12 N         141.4127  138.5059  158.4125 N.am    1  UNL1       -0.2555
     13 C         141.8192  137.4586  157.4186 C.2     1  UNL1        0.2497
     14 O         142.9840  136.5597  157.7103 O.2     1  UNL1       -0.2727
     15 C         141.0609  137.3101  156.1329 C.3     1  UNL1        0.1799
     16 C         137.9729  138.9596  154.2636 C.ar    1  UNL1        0.0536
     17 C         138.2031  140.3135  153.6605 C.ar    1  UNL1        0.0054
     18 C         137.0382  141.2124  153.3688 C.ar    1  UNL1        0.0115
     19 C         135.6432  140.7573  153.6801 C.ar    1  UNL1        0.0577
     20 CL        134.4784  141.6562  153.3882 Cl      1  UNL1       -0.0822
     21 C         135.4131  139.4033  154.2831 C.ar    1  UNL1        0.0115
     22 C         136.5779  138.5044  154.5749 C.ar    1  UNL1        0.0054
     23 O         144.4457  139.0996  163.5552 O.3     1  UNL1       -0.4791
     24 C         143.8487  139.8735  164.6930 C.3     1  UNL1        0.1687
     25 C         143.1908  139.1487  165.8295 C.3     1  UNL1        0.0609
     26 C         142.5938  139.9227  166.9673 C.3     1  UNL1        0.0758
     27 N         142.6547  141.4214  166.9686 N.3     1  UNL1       -0.2737
     28 C         143.3126  142.1463  165.8320 C.3     1  UNL1        0.0758
     29 C         143.9096  141.3723  164.6942 C.3     1  UNL1        0.0609
     30 C         142.0577  142.1953  168.1064 C.3     1  UNL1        0.0575
     31 C         140.6592  142.7344  168.1683 C.3     1  UNL1        0.0160
     32 C         140.4916  143.4383  169.4823 C.3     1  UNL1        0.0014
     33 C         141.7864  143.3343  170.2324 C.3     1  UNL1        0.0014
     34 C         142.7543  142.5661  169.3820 C.3     1  UNL1        0.0160
@<TRIPOS>BOND
     1     7     8    2
     2     8    16    1
     3    16    17   ar
     4    17    18   ar
     5    18    19   ar
     6    19    20    1
     7    19    21   ar
     8    21    22   ar
     9     8     9   am
    10     9    10    1
    11    10    11    1
    12    11    12    1
    13    12     1    1
    14     1     2   ar
    15     2     3   ar
    16     3     4   ar
    17     4    23    1
    18    23    24    1
    19    24    25    1
    20    25    26    1
    21    26    27    1
    22    27    30    1
    23    30    31    1
    24    31    32    1
    25    32    33    1
    26    33    34    1
    27    27    28    1
    28    28    29    1
    29     4     5   ar
    30     5     6   ar
    31    12    13   am
    32    13    14    2
    33    13    15    1
    34    22    16   ar
    35    15     9    1
    36     6     1   ar
    37    29    24    1
    38    34    30    1
@<TRIPOS>MOLECULE
*****
 34 38 0 0 0
SMALL
GASTEIGER

@<TRIPOS>ATOM
      1 C         138.3519  139.2248  155.3228 C.ar    1  UNL1        0.0541
      2 C         138.0610  140.3341  156.2897 C.ar    1  UNL1        0.0180
      3 C         136.7656  141.0854  156.2015 C.ar    1  UNL1        0.0382
      4 C         135.7613  140.7274  155.1464 C.ar    1  UNL1        0.1385
      5 C         136.0522  139.6181  154.1796 C.ar    1  UNL1        0.0382
      6 C         137.3475  138.8668  154.2677 C.ar    1  UNL1        0.0180
      7 O         144.8351  136.9502  155.5306 O.2     1  UNL1       -0.2699
      8 C         143.5330  136.2197  155.6754 C.2     1  UNL1        0.2494
      9 N         142.2378  136.9710  155.5873 N.am    1  UNL1       -0.2660
     10 C         140.9357  136.2405  155.7321 C.3     1  UNL1        0.1160
     11 C         139.6404  136.9918  155.6439 C.3     1  UNL1        0.1197
     12 N         139.6472  138.4736  155.4109 N.am    1  UNL1       -0.2555
     13 C         140.9493  139.2041  155.2661 C.2     1  UNL1        0.2497
     14 O         140.9561  140.6858  155.0332 O.2     1  UNL1       -0.2727
     15 C         142.2445  138.4528  155.3543 C.3     1  UNL1        0.1799
     16 C         143.5263  134.7379  155.9084 C.ar    1  UNL1        0.0536
     17 C         143.2168  133.8023  154.7775 C.ar    1  UNL1        0.0054
     18 C         143.2101  132.3205  155.0105 C.ar    1  UNL1        0.0115
     19 C         143.5128  131.7744  156.3744 C.ar    1  UNL1        0.0577
     20 CL        143.5060  130.2925  156.6074 Cl      1  UNL1       -0.0822
     21 C         143.8222  132.7100  157.5052 C.ar    1  UNL1        0.0115
     22 C         143.8290  134.1917  157.2722 C.ar    1  UNL1        0.0054
     23 O         134.4660  141.4787  155.0583 O.3     1  UNL1       -0.4791
     24 C         133.2392  140.9402  155.7329 C.3     1  UNL1        0.1687
     25 C         131.8819  141.4293  155.3226 C.3     1  UNL1        0.0609
     26 C         130.6551  140.8908  155.9973 C.3     1  UNL1        0.0758
     27 N         130.7857  139.8633  157.0822 N.3     1  UNL1       -0.2737
     28 C         132.1431  139.3742  157.4926 C.3     1  UNL1        0.0758
     29 C         133.3699  139.9127  156.8179 C.3     1  UNL1        0.0609
     30 C         129.5590  139.3249  157.7568 C.3     1  UNL1        0.0575
     31 C         129.5136  138.1698  158.7129 C.3     1  UNL1        0.0160
     32 C         128.0888  137.9781  159.1408 C.3     1  UNL1        0.0014
     33 C         127.2535  139.0145  158.4492 C.3     1  UNL1        0.0014
     34 C         128.1622  139.8469  157.5939 C.3     1  UNL1        0.0160
@<TRIPOS>BOND
     1     7     8    2
     2     8    16    1
     3    16    17   ar
     4    17    18   ar
     5    18    19   ar
     6    19    20    1
     7    19    21   ar
     8    21    22   ar
     9     8     9   am
    10     9    10    1
    11    10    11    1
    12    11    12    1
    13    12     1    1
    14     1     2   ar
    15     2     3   ar
    16     3     4   ar
    17     4    23    1
    18    23    24    1
    19    24    25    1
    20    25    26    1
    21    26    27    1
    22    27    30    1
    23    30    31    1
    24    31    32    1
    25    32    33    1
    26    33    34    1
    27    27    28    1
    28    28    29    1
    29     4     5   ar
    30     5     6   ar
    31    12    13   am
    32    13    14    2
    33    13    15    1
    34    22    16   ar
    35    15     9    1
    36     6     1   ar
    37    29    24    1
    38    34    30    1
@<TRIPOS>MOLECULE
*****
 34 38 0 0 0
SMALL
GASTEIGER

@<TRIPOS>ATOM
      1 C         141.3657  143.9080  159.1166 C.ar    1  UNL1        0.0541
      2 C         141.5698  145.3426  158.7290 C.ar    1  UNL1        0.0180
      3 C         140.7884  145.9306  157.5916 C.ar    1  UNL1        0.0382
      4 C         139.8030  145.0841  156.8418 C.ar    1  UNL1        0.1385
      5 C         139.5988  143.6495  157.2294 C.ar    1  UNL1        0.0382
      6 C         140.3802  143.0614  158.3668 C.ar    1  UNL1        0.0180
      7 O         145.9239  141.1599  163.4663 O.2     1  UNL1       -0.2699
      8 C         144.4910  141.5557  163.6662 C.2     1  UNL1        0.2494
      9 N         143.7096  142.1437  162.5288 N.am    1  UNL1       -0.2660
     10 C         142.2767  142.5395  162.7287 C.3     1  UNL1        0.1160
     11 C         141.4953  143.1276  161.5913 C.3     1  UNL1        0.1197
     12 N         142.1470  143.3199  160.2540 N.am    1  UNL1       -0.2555
     13 C         143.5800  142.9241  160.0541 C.2     1  UNL1        0.2497
     14 O         144.2316  143.1164  158.7169 O.2     1  UNL1       -0.2727
     15 C         144.3613  142.3361  161.1915 C.3     1  UNL1        0.1799
     16 C         143.8393  141.3633  165.0036 C.ar    1  UNL1        0.0536
     17 C         143.7089  142.5215  165.9478 C.ar    1  UNL1        0.0054
     18 C         143.0573  142.3291  167.2851 C.ar    1  UNL1        0.0115
     19 C         142.5361  140.9786  167.6781 C.ar    1  UNL1        0.0577
     20 CL        141.8844  140.7863  169.0155 Cl      1  UNL1       -0.0822
     21 C         142.6665  139.8205  166.7339 C.ar    1  UNL1        0.0115
     22 C         143.3181  140.0128  165.3966 C.ar    1  UNL1        0.0054
     23 O         139.0216  145.6722  155.7044 O.3     1  UNL1       -0.4791
     24 C         139.1784  147.1231  155.3579 C.3     1  UNL1        0.1687
     25 C         138.5147  148.1715  156.2007 C.3     1  UNL1        0.0609
     26 C         138.6714  149.6224  155.8542 C.3     1  UNL1        0.0758
     27 N         139.4918  150.0251  154.6648 N.3     1  UNL1       -0.2737
     28 C         140.1555  148.9767  153.8218 C.3     1  UNL1        0.0758
     29 C         139.9988  147.5258  154.1684 C.3     1  UNL1        0.0609
     30 C         139.6485  151.4761  154.3182 C.3     1  UNL1        0.0575
     31 C         138.6376  152.5561  154.5667 C.3     1  UNL1        0.0160
     32 C         139.2080  153.8493  154.0644 C.3     1  UNL1        0.0014
     33 C         140.5713  153.5685  153.5054 C.3     1  UNL1        0.0014
     34 C         140.8436  152.1018  153.6623 C.3     1  UNL1        0.0160
@<TRIPOS>BOND
     1     7     8    2
     2     8    16    1
     3    16    17   ar
     4    17    18   ar
     5    18    19   ar
     6    19    20    1
     7    19    21   ar
     8    21    22   ar
     9     8     9   am
    10     9    10    1
    11    10    11    1
    12    11    12    1
    13    12     1    1
    14     1     2   ar
    15     2     3   ar
    16     3     4   ar
    17     4    23    1
    18    23    24    1
    19    24    25    1
    20    25    26    1
    21    26    27    1
    22    27    30    1
    23    30    31    1
    24    31    32    1
    25    32    33    1
    26    33    34    1
    27    27    28    1
    28    28    29    1
    29     4     5   ar
    30     5     6   ar
    31    12    13   am
    32    13    14    2
    33    13    15    1
    34    22    16   ar
    35    15     9    1
    36     6     1   ar
    37    29    24    1
    38    34    30    1
@<TRIPOS>MOLECULE
*****
 34 38 0 0 0
SMALL
GASTEIGER

@<TRIPOS>ATOM
      1 C         142.2502  140.6449  161.5064 C.ar    1  UNL1        0.0541
      2 C         141.2197  139.9448  160.6710 C.ar    1  UNL1        0.0180
      3 C         141.1633  140.1864  159.1916 C.ar    1  UNL1        0.0382
      4 C         142.1373  141.1279  158.5477 C.ar    1  UNL1        0.1385
      5 C         143.1678  141.8280  159.3832 C.ar    1  UNL1        0.0382
      6 C         143.2243  141.5865  160.8625 C.ar    1  UNL1        0.0180
      7 O         143.3231  138.5684  167.9707 O.2     1  UNL1       -0.2699
      8 C         142.4760  139.6789  167.4238 C.2     1  UNL1        0.2494
      9 N         142.4195  139.9204  165.9445 N.am    1  UNL1       -0.2660
     10 C         141.5723  141.0309  165.3976 C.3     1  UNL1        0.1160
     11 C         141.5159  141.2724  163.9182 C.3     1  UNL1        0.1197
     12 N         142.3066  140.4034  162.9858 N.am    1  UNL1       -0.2555
     13 C         143.1538  139.2929  163.5326 C.2     1  UNL1        0.2497
     14 O         143.9445  138.4239  162.6002 O.2     1  UNL1       -0.2727
     15 C         143.2103  139.0514  165.0120 C.3     1  UNL1        0.1799
     16 C         141.6852  140.5480  168.3564 C.ar    1  UNL1        0.0536
     17 C         140.3272  140.1103  168.8191 C.ar    1  UNL1        0.0054
     18 C         139.5365  140.9794  169.7516 C.ar    1  UNL1        0.0115
     19 C         140.1039  142.2860  170.2214 C.ar    1  UNL1        0.0577
     20 CL        139.3131  143.1551  171.1539 Cl      1  UNL1       -0.0822
     21 C         141.4619  142.7237  169.7587 C.ar    1  UNL1        0.0115
     22 C         142.2526  141.8546  168.8262 C.ar    1  UNL1        0.0054
     23 O         142.0809  141.3694  157.0684 O.3     1  UNL1       -0.4791
     24 C         141.6299  142.6998  156.5423 C.3     1  UNL1        0.1687
     25 C         142.6260  143.6436  155.9366 C.3     1  UNL1        0.0609
     26 C         142.1750  144.9739  155.4105 C.3     1  UNL1        0.0758
     27 N         140.7279  145.3605  155.4901 N.3     1  UNL1       -0.2737
     28 C         139.7317  144.4167  156.0959 C.3     1  UNL1        0.0758
     29 C         140.1827  143.0863  156.6220 C.3     1  UNL1        0.0609
     30 C         140.2769  146.6908  154.9640 C.3     1  UNL1        0.0575
     31 C         140.6988  147.3150  153.6669 C.3     1  UNL1        0.0160
     32 C         140.0074  148.6405  153.5439 C.3     1  UNL1        0.0014
     33 C         139.1583  148.8355  154.7649 C.3     1  UNL1        0.0014
     34 C         139.3248  147.6306  155.6426 C.3     1  UNL1        0.0160
@<TRIPOS>BOND
     1     7     8    2
     2     8    16    1
     3    16    17   ar
     4    17    18   ar
     5    18    19   ar
     6    19    20    1
     7    19    21   ar
     8    21    22   ar
     9     8     9   am
    10     9    10    1
    11    10    11    1
    12    11    12    1
    13    12     1    1
    14     1     2   ar
    15     2     3   ar
    16     3     4   ar
    17     4    23    1
    18    23    24    1
    19    24    25    1
    20    25    26    1
    21    26    27    1
    22    27    30    1
    23    30    31    1
    24    31    32    1
    25    32    33    1
    26    33    34    1
    27    27    28    1
    28    28    29    1
    29     4     5   ar
    30     5     6   ar
    31    12    13   am
    32    13    14    2
    33    13    15    1
    34    22    16   ar
    35    15     9    1
    36     6     1   ar
    37    29    24    1
    38    34    30    1
