@<TRIPOS>MOLECULE
*****
 34 37 0 0 0
SMALL
GASTEIGER

@<TRIPOS>ATOM
      1 C         141.6784  143.7397  160.6303 C.ar    1  UNL1        0.0504
      2 C         142.4332  143.6490  159.3372 C.ar    1  UNL1        0.0060
      3 C         142.8569  142.2227  159.1469 C.ar    1  UNL1        0.0041
      4 C         142.3639  141.4319  160.3222 C.ar    1  UNL1        0.0270
      5 S         141.6355  142.3694  161.2390 S.2     1  UNL1       -0.0903
      6 C         141.0727  144.9823  161.2124 C.3     1  UNL1        0.2384
      7 O         141.4505  145.4240  162.5952 O.3     1  UNL1       -0.4701
      8 C         140.6727  142.7243  166.1105 C.ar    1  UNL1       -0.0099
      9 C         142.0467  142.8015  165.5136 C.ar    1  UNL1       -0.0002
     10 C         142.3060  143.7013  164.3419 C.ar    1  UNL1        0.0366
     11 C         141.1912  144.5241  163.7669 C.ar    1  UNL1        0.1391
     12 C         139.8172  144.4470  164.3638 C.ar    1  UNL1        0.0366
     13 C         139.5581  143.5471  165.5356 C.ar    1  UNL1       -0.0002
     14 C         140.4134  141.8245  167.2822 C.3     1  UNL1        0.0917
     15 C         137.8426  138.1649  166.7833 C.3     1  UNL1        0.0900
     16 C         138.6995  139.3848  166.9496 C.1     1  UNL1       -0.0897
     17 C         139.5565  140.6046  167.1159 C.1     1  UNL1       -0.0872
     18 C         141.0111  142.1445  168.6202 C.3     1  UNL1        0.0591
     19 C         140.1433  142.6793  169.7208 C.2     1  UNL1        0.0517
     20 O         140.1976  144.1350  170.0784 O.co2   1  UNL1       -0.5491
     21 O         139.2214  141.7584  170.4637 O.co2   1  UNL1       -0.5491
     22 C         142.5640  139.9616  160.5421 C.3     1  UNL1        0.1243
     23 N         141.7454  139.2388  161.5705 N.pl3   1  UNL1       -0.3011
     24 C         140.4115  138.6629  161.1977 C.3     1  UNL1        0.0915
     25 C         139.5929  137.9401  162.2261 C.3     1  UNL1        0.0261
     26 C         140.1082  137.7933  163.6271 C.3     1  UNL1        0.0295
     27 C         141.4421  138.3692  163.9998 C.ar    1  UNL1       -0.0058
     28 C         141.9574  138.2223  165.4008 C.ar    1  UNL1       -0.0028
     29 C         143.2913  138.7983  165.7736 C.ar    1  UNL1        0.0029
     30 C         144.1100  139.5211  164.7452 C.ar    1  UNL1        0.0382
     31 C         143.5947  139.6679  163.3442 C.ar    1  UNL1        0.1516
     32 C         142.2607  139.0920  162.9715 C.ar    1  UNL1        0.0785
     33 O         144.4133  140.3907  162.3159 O.3     1  UNL1       -0.4702
     34 C         145.1952  141.6112  162.7021 C.3     1  UNL1        0.2525
@<TRIPOS>UNITY_ATOM_ATTR
20 1
charge -1
@<TRIPOS>BOND
     1    15    16    1
     2    16    17    3
     3    14    17    1
     4    14    18    1
     5    18    19    1
     6    19    20   ar
     7    19    21   ar
     8    14     8    1
     9     8     9   ar
    10     9    10   ar
    11    10    11   ar
    12    11     7    1
    13     7     6    1
    14     6     1    1
    15     1     2   ar
    16     2     3   ar
    17     3     4   ar
    18     4    22    1
    19    22    23    1
    20    23    24    1
    21    24    25    1
    22    25    26    1
    23    26    27    1
    24    27    28   ar
    25    28    29   ar
    26    29    30   ar
    27    30    31   ar
    28    31    33    1
    29    33    34    1
    30    31    32   ar
    31     4     5   ar
    32    11    12   ar
    33    12    13   ar
    34    13     8   ar
    35     5     1   ar
    36    32    23    1
    37    32    27   ar
@<TRIPOS>MOLECULE
*****
 34 37 0 0 0
SMALL
GASTEIGER

@<TRIPOS>ATOM
      1 C         140.7854  144.9665  160.9725 C.ar    1  UNL1        0.0504
      2 C         141.0358  145.0848  159.4983 C.ar    1  UNL1        0.0060
      3 C         141.9582  143.9732  159.0941 C.ar    1  UNL1        0.0041
      4 C         142.2780  143.1678  160.3185 C.ar    1  UNL1        0.0270
      5 S         141.5531  143.7817  161.4794 S.2     1  UNL1       -0.0903
      6 C         139.9194  145.8736  161.7954 C.3     1  UNL1        0.2384
      7 O         138.7059  145.3274  162.4875 O.3     1  UNL1       -0.4701
      8 C         139.0585  141.6865  165.1085 C.ar    1  UNL1       -0.0099
      9 C         139.6432  142.9930  165.5571 C.ar    1  UNL1       -0.0002
     10 C         139.5256  144.2066  164.6835 C.ar    1  UNL1        0.0366
     11 C         138.8234  144.1137  163.3611 C.ar    1  UNL1        0.1391
     12 C         138.2388  142.8072  162.9125 C.ar    1  UNL1        0.0366
     13 C         138.3564  141.5936  163.7862 C.ar    1  UNL1       -0.0002
     14 C         139.1760  140.4728  165.9821 C.3     1  UNL1        0.0917
     15 C         142.7577  139.9654  168.6588 C.3     1  UNL1        0.0900
     16 C         141.5638  140.1346  167.7666 C.1     1  UNL1       -0.0897
     17 C         140.3699  140.3037  166.8743 C.1     1  UNL1       -0.0872
     18 C         138.0997  139.4283  165.9635 C.3     1  UNL1        0.0591
     19 C         137.8010  138.6369  167.2023 C.2     1  UNL1        0.0517
     20 O         138.0032  139.2550  168.5540 O.co2   1  UNL1       -0.5491
     21 O         137.3001  137.2275  167.0894 O.co2   1  UNL1       -0.5491
     22 C         143.1665  141.9605  160.3724 C.3     1  UNL1        0.1243
     23 N         143.7651  141.5276  161.6780 N.pl3   1  UNL1       -0.3011
     24 C         145.0218  142.1758  162.1785 C.3     1  UNL1        0.0915
     25 C         145.6203  141.7429  163.4840 C.3     1  UNL1        0.0261
     26 C         144.9621  140.6617  164.2889 C.3     1  UNL1        0.0295
     27 C         143.7055  140.0135  163.7884 C.ar    1  UNL1       -0.0058
     28 C         143.0473  138.9323  164.5934 C.ar    1  UNL1       -0.0028
     29 C         141.7907  138.2841  164.0928 C.ar    1  UNL1        0.0029
     30 C         141.1921  138.7170  162.7873 C.ar    1  UNL1        0.0382
     31 C         141.8502  139.7982  161.9823 C.ar    1  UNL1        0.1516
     32 C         143.1070  140.4464  162.4829 C.ar    1  UNL1        0.0785
     33 O         141.2517  140.2311  160.6769 O.3     1  UNL1       -0.4702
     34 C         139.7626  140.3433  160.5350 C.3     1  UNL1        0.2525
@<TRIPOS>UNITY_ATOM_ATTR
20 1
charge -1
@<TRIPOS>BOND
     1    15    16    1
     2    16    17    3
     3    14    17    1
     4    14    18    1
     5    18    19    1
     6    19    20   ar
     7    19    21   ar
     8    14     8    1
     9     8     9   ar
    10     9    10   ar
    11    10    11   ar
    12    11     7    1
    13     7     6    1
    14     6     1    1
    15     1     2   ar
    16     2     3   ar
    17     3     4   ar
    18     4    22    1
    19    22    23    1
    20    23    24    1
    21    24    25    1
    22    25    26    1
    23    26    27    1
    24    27    28   ar
    25    28    29   ar
    26    29    30   ar
    27    30    31   ar
    28    31    33    1
    29    33    34    1
    30    31    32   ar
    31     4     5   ar
    32    11    12   ar
    33    12    13   ar
    34    13     8   ar
    35     5     1   ar
    36    32    23    1
    37    32    27   ar
@<TRIPOS>MOLECULE
*****
 34 37 0 0 0
SMALL
GASTEIGER

@<TRIPOS>ATOM
      1 C         144.5743  142.1675  162.8321 C.ar    1  UNL1        0.0504
      2 C         145.5101  141.3985  163.7169 C.ar    1  UNL1        0.0060
      3 C         145.2806  139.9361  163.4745 C.ar    1  UNL1        0.0041
      4 C         144.2030  139.8013  162.4398 C.ar    1  UNL1        0.0270
      5 S         143.7665  141.1803  162.0428 S.2     1  UNL1       -0.0903
      6 C         144.4654  143.6613  162.7508 C.3     1  UNL1        0.2384
      7 O         143.4948  144.3915  163.6311 O.3     1  UNL1       -0.4701
      8 C         141.3602  142.1989  166.9304 C.ar    1  UNL1       -0.0099
      9 C         140.5747  142.8349  165.8220 C.ar    1  UNL1       -0.0002
     10 C         141.2863  143.5657  164.7222 C.ar    1  UNL1        0.0366
     11 C         142.7833  143.6606  164.7309 C.ar    1  UNL1        0.1391
     12 C         143.5688  143.0246  165.8393 C.ar    1  UNL1        0.0366
     13 C         142.8571  142.2938  166.9391 C.ar    1  UNL1       -0.0002
     14 C         140.6487  141.4680  168.0302 C.3     1  UNL1        0.0917
     15 C         137.5889  138.3236  167.0299 C.3     1  UNL1        0.0900
     16 C         138.6088  139.3717  167.3633 C.1     1  UNL1       -0.0897
     17 C         139.6287  140.4199  167.6968 C.1     1  UNL1       -0.0872
     18 C         140.9571  141.7853  169.4634 C.3     1  UNL1        0.0591
     19 C         141.1168  143.2121  169.8982 C.2     1  UNL1        0.0517
     20 O         140.0520  144.2181  169.5755 O.co2   1  UNL1       -0.5491
     21 O         142.3413  143.6327  170.6556 O.co2   1  UNL1       -0.5491
     22 C         143.6577  138.5135  161.8974 C.3     1  UNL1        0.1243
     23 N         142.3376  138.4989  161.1851 N.pl3   1  UNL1       -0.3011
     24 C         142.2786  138.7619  159.7096 C.3     1  UNL1        0.0915
     25 C         140.9586  138.7473  158.9974 C.3     1  UNL1        0.0261
     26 C         139.6975  138.4698  159.7607 C.3     1  UNL1        0.0295
     27 C         139.7565  138.2068  161.2363 C.ar    1  UNL1       -0.0058
     28 C         138.4954  137.9293  161.9996 C.ar    1  UNL1       -0.0028
     29 C         138.5544  137.6663  163.4752 C.ar    1  UNL1        0.0029
     30 C         139.8745  137.6809  164.1875 C.ar    1  UNL1        0.0382
     31 C         141.1355  137.9584  163.4241 C.ar    1  UNL1        0.1516
     32 C         141.0765  138.2214  161.9485 C.ar    1  UNL1        0.0785
     33 O         142.4556  137.9730  164.1363 O.3     1  UNL1       -0.4702
     34 C         142.5386  138.4615  165.5522 C.3     1  UNL1        0.2525
@<TRIPOS>UNITY_ATOM_ATTR
20 1
charge -1
@<TRIPOS>BOND
     1    15    16    1
     2    16    17    3
     3    14    17    1
     4    14    18    1
     5    18    19    1
     6    19    20   ar
     7    19    21   ar
     8    14     8    1
     9     8     9   ar
    10     9    10   ar
    11    10    11   ar
    12    11     7    1
    13     7     6    1
    14     6     1    1
    15     1     2   ar
    16     2     3   ar
    17     3     4   ar
    18     4    22    1
    19    22    23    1
    20    23    24    1
    21    24    25    1
    22    25    26    1
    23    26    27    1
    24    27    28   ar
    25    28    29   ar
    26    29    30   ar
    27    30    31   ar
    28    31    33    1
    29    33    34    1
    30    31    32   ar
    31     4     5   ar
    32    11    12   ar
    33    12    13   ar
    34    13     8   ar
    35     5     1   ar
    36    32    23    1
    37    32    27   ar
@<TRIPOS>MOLECULE
*****
 34 37 0 0 0
SMALL
GASTEIGER

@<TRIPOS>ATOM
      1 C         144.4981  141.8550  163.0045 C.ar    1  UNL1        0.0504
      2 C         145.4339  140.9092  163.6971 C.ar    1  UNL1        0.0060
      3 C         144.9482  139.5119  163.4489 C.ar    1  UNL1        0.0041
      4 C         143.7122  139.5941  162.6030 C.ar    1  UNL1        0.0270
      5 S         143.4340  141.0422  162.3284 S.2     1  UNL1       -0.0903
      6 C         144.6071  143.3510  162.9905 C.3     1  UNL1        0.2384
      7 O         143.9074  144.1638  164.0393 O.3     1  UNL1       -0.4701
      8 C         141.4382  142.1173  167.1960 C.ar    1  UNL1       -0.0099
      9 C         142.9274  142.2085  167.3508 C.ar    1  UNL1       -0.0002
     10 C         143.7504  142.8906  166.2986 C.ar    1  UNL1        0.0366
     11 C         143.0843  143.4816  165.0915 C.ar    1  UNL1        0.1391
     12 C         141.5951  143.3904  164.9366 C.ar    1  UNL1        0.0366
     13 C         140.7721  142.7082  165.9889 C.ar    1  UNL1       -0.0002
     14 C         140.6151  141.4351  168.2482 C.3     1  UNL1        0.0917
     15 C         137.5452  138.3653  167.0641 C.3     1  UNL1        0.0900
     16 C         138.5685  139.3886  167.4588 C.1     1  UNL1       -0.0897
     17 C         139.5918  140.4119  167.8535 C.1     1  UNL1       -0.0872
     18 C         140.8152  141.7763  169.6950 C.3     1  UNL1        0.0591
     19 C         140.1359  142.9773  170.2834 C.2     1  UNL1        0.0517
     20 O         140.0696  144.2579  169.5051 O.co2   1  UNL1       -0.5491
     21 O         139.5229  142.8978  171.6501 O.co2   1  UNL1       -0.5491
     22 C         142.8975  138.4321  162.1171 C.3     1  UNL1        0.1243
     23 N         141.5543  138.1522  162.7235 N.pl3   1  UNL1       -0.3011
     24 C         141.4610  137.5465  164.0925 C.3     1  UNL1        0.0915
     25 C         140.1178  137.2666  164.6988 C.3     1  UNL1        0.0261
     26 C         138.8680  137.5923  163.9360 C.3     1  UNL1        0.0295
     27 C         138.9613  138.1980  162.5669 C.ar    1  UNL1       -0.0058
     28 C         137.7115  138.5238  161.8041 C.ar    1  UNL1       -0.0028
     29 C         137.8048  139.1294  160.4351 C.ar    1  UNL1        0.0029
     30 C         139.1480  139.4094  159.8287 C.ar    1  UNL1        0.0382
     31 C         140.3978  139.0837  160.5915 C.ar    1  UNL1        0.1516
     32 C         140.3045  138.4779  161.9607 C.ar    1  UNL1        0.0785
     33 O         141.7410  139.3636  159.9852 O.3     1  UNL1       -0.4702
     34 C         141.9149  140.5241  159.0508 C.3     1  UNL1        0.2525
@<TRIPOS>UNITY_ATOM_ATTR
20 1
charge -1
@<TRIPOS>BOND
     1    15    16    1
     2    16    17    3
     3    14    17    1
     4    14    18    1
     5    18    19    1
     6    19    20   ar
     7    19    21   ar
     8    14     8    1
     9     8     9   ar
    10     9    10   ar
    11    10    11   ar
    12    11     7    1
    13     7     6    1
    14     6     1    1
    15     1     2   ar
    16     2     3   ar
    17     3     4   ar
    18     4    22    1
    19    22    23    1
    20    23    24    1
    21    24    25    1
    22    25    26    1
    23    26    27    1
    24    27    28   ar
    25    28    29   ar
    26    29    30   ar
    27    30    31   ar
    28    31    33    1
    29    33    34    1
    30    31    32   ar
    31     4     5   ar
    32    11    12   ar
    33    12    13   ar
    34    13     8   ar
    35     5     1   ar
    36    32    23    1
    37    32    27   ar
@<TRIPOS>MOLECULE
*****
 34 37 0 0 0
SMALL
GASTEIGER

@<TRIPOS>ATOM
      1 C         140.9376  145.3017  162.3311 C.ar    1  UNL1        0.0504
      2 C         141.8063  145.6145  163.5132 C.ar    1  UNL1        0.0060
      3 C         143.0702  144.8172  163.3835 C.ar    1  UNL1        0.0041
      4 C         142.9826  144.0116  162.1212 C.ar    1  UNL1        0.0270
      5 S         141.6646  144.3111  161.4708 S.2     1  UNL1       -0.0903
      6 C         139.5801  145.8783  162.0574 C.3     1  UNL1        0.2384
      7 O         138.3497  145.1393  162.4930 O.3     1  UNL1       -0.4701
      8 C         138.7324  141.3090  164.8238 C.ar    1  UNL1       -0.0099
      9 C         138.2426  141.2786  163.4063 C.ar    1  UNL1       -0.0002
     10 C         138.1150  142.5554  162.6295 C.ar    1  UNL1        0.0366
     11 C         138.4773  143.8626  163.2700 C.ar    1  UNL1        0.1391
     12 C         138.9671  143.8929  164.6874 C.ar    1  UNL1        0.0366
     13 C         139.0947  142.6161  165.4643 C.ar    1  UNL1       -0.0002
     14 C         138.8601  140.0323  165.6007 C.3     1  UNL1        0.0917
     15 C         140.1643  140.1393  169.9063 C.3     1  UNL1        0.0900
     16 C         139.7296  140.1036  168.4711 C.1     1  UNL1       -0.0897
     17 C         139.2948  140.0680  167.0359 C.1     1  UNL1       -0.0872
     18 C         138.5529  138.7199  164.9425 C.3     1  UNL1        0.0591
     19 C         139.6334  137.9733  164.2177 C.2     1  UNL1        0.0517
     20 O         140.9246  137.6595  164.9137 O.co2   1  UNL1       -0.5491
     21 O         139.4227  137.5406  162.7971 O.co2   1  UNL1       -0.5491
     22 C         144.0293  143.0716  161.6007 C.3     1  UNL1        0.1243
     23 N         144.2581  141.7537  162.2795 N.pl3   1  UNL1       -0.3011
     24 C         144.8535  141.7122  163.6557 C.3     1  UNL1        0.0915
     25 C         145.0822  140.3943  164.3344 C.3     1  UNL1        0.0261
     26 C         144.7156  139.1178  163.6370 C.3     1  UNL1        0.0295
     27 C         144.1202  139.1593  162.2609 C.ar    1  UNL1       -0.0058
     28 C         143.7536  137.8829  161.5635 C.ar    1  UNL1       -0.0028
     29 C         143.1582  137.9244  160.1874 C.ar    1  UNL1        0.0029
     30 C         142.9294  139.2424  159.5086 C.ar    1  UNL1        0.0382
     31 C         143.2960  140.5188  160.2060 C.ar    1  UNL1        0.1516
     32 C         143.8914  140.4772  161.5822 C.ar    1  UNL1        0.0785
     33 O         143.0673  141.8367  159.5272 O.3     1  UNL1       -0.4702
     34 C         142.0445  141.9508  158.4359 C.3     1  UNL1        0.2525
@<TRIPOS>UNITY_ATOM_ATTR
20 1
charge -1
@<TRIPOS>BOND
     1    15    16    1
     2    16    17    3
     3    14    17    1
     4    14    18    1
     5    18    19    1
     6    19    20   ar
     7    19    21   ar
     8    14     8    1
     9     8     9   ar
    10     9    10   ar
    11    10    11   ar
    12    11     7    1
    13     7     6    1
    14     6     1    1
    15     1     2   ar
    16     2     3   ar
    17     3     4   ar
    18     4    22    1
    19    22    23    1
    20    23    24    1
    21    24    25    1
    22    25    26    1
    23    26    27    1
    24    27    28   ar
    25    28    29   ar
    26    29    30   ar
    27    30    31   ar
    28    31    33    1
    29    33    34    1
    30    31    32   ar
    31     4     5   ar
    32    11    12   ar
    33    12    13   ar
    34    13     8   ar
    35     5     1   ar
    36    32    23    1
    37    32    27   ar
@<TRIPOS>MOLECULE
*****
 34 37 0 0 0
SMALL
GASTEIGER

@<TRIPOS>ATOM
      1 C         140.4747  144.6344  160.6724 C.ar    1  UNL1        0.0504
      2 C         140.2704  144.3379  159.2162 C.ar    1  UNL1        0.0060
      3 C         140.8611  142.9891  158.9305 C.ar    1  UNL1        0.0041
      4 C         141.4305  142.4519  160.2100 C.ar    1  UNL1        0.0270
      5 S         141.1917  143.4687  161.2865 S.2     1  UNL1       -0.0903
      6 C         140.0385  145.8780  161.3886 C.3     1  UNL1        0.2384
      7 O         139.2027  145.7746  162.6298 O.3     1  UNL1       -0.4701
      8 C         139.1442  141.9438  164.9902 C.ar    1  UNL1       -0.0099
      9 C         138.1104  142.1881  163.9312 C.ar    1  UNL1       -0.0002
     10 C         138.1299  143.4650  163.1444 C.ar    1  UNL1        0.0366
     11 C         139.1833  144.4977  163.4167 C.ar    1  UNL1        0.1391
     12 C         140.2171  144.2534  164.4757 C.ar    1  UNL1        0.0366
     13 C         140.1975  142.9765  165.2624 C.ar    1  UNL1       -0.0002
     14 C         139.1247  140.6669  165.7770 C.3     1  UNL1        0.0917
     15 C         142.3014  139.8782  168.8653 C.3     1  UNL1        0.0900
     16 C         141.2425  140.1411  167.8359 C.1     1  UNL1       -0.0897
     17 C         140.1836  140.4040  166.8064 C.1     1  UNL1       -0.0872
     18 C         138.0464  139.6529  165.5344 C.3     1  UNL1        0.0591
     19 C         138.0283  138.3747  166.3195 C.2     1  UNL1        0.0517
     20 O         138.6666  137.1396  165.7563 O.co2   1  UNL1       -0.5491
     21 O         137.3720  138.3318  167.6676 O.co2   1  UNL1       -0.5491
     22 C         142.1180  141.1299  160.3827 C.3     1  UNL1        0.1243
     23 N         141.4514  140.0337  161.1599 N.pl3   1  UNL1       -0.3011
     24 C         140.2133  139.3793  160.6225 C.3     1  UNL1        0.0915
     25 C         139.5467  138.2832  161.3997 C.3     1  UNL1        0.0261
     26 C         140.1183  137.8414  162.7143 C.3     1  UNL1        0.0295
     27 C         141.3564  138.4958  163.2517 C.ar    1  UNL1       -0.0058
     28 C         141.9279  138.0540  164.5663 C.ar    1  UNL1       -0.0028
     29 C         143.1660  138.7084  165.1037 C.ar    1  UNL1        0.0029
     30 C         143.8326  139.8046  164.3265 C.ar    1  UNL1        0.0382
     31 C         143.2611  140.2464  163.0119 C.ar    1  UNL1        0.1516
     32 C         142.0229  139.5919  162.4745 C.ar    1  UNL1        0.0785
     33 O         143.9277  141.3425  162.2347 O.3     1  UNL1       -0.4702
     34 C         145.2253  141.9211  162.7160 C.3     1  UNL1        0.2525
@<TRIPOS>UNITY_ATOM_ATTR
20 1
charge -1
@<TRIPOS>BOND
     1    15    16    1
     2    16    17    3
     3    14    17    1
     4    14    18    1
     5    18    19    1
     6    19    20   ar
     7    19    21   ar
     8    14     8    1
     9     8     9   ar
    10     9    10   ar
    11    10    11   ar
    12    11     7    1
    13     7     6    1
    14     6     1    1
    15     1     2   ar
    16     2     3   ar
    17     3     4   ar
    18     4    22    1
    19    22    23    1
    20    23    24    1
    21    24    25    1
    22    25    26    1
    23    26    27    1
    24    27    28   ar
    25    28    29   ar
    26    29    30   ar
    27    30    31   ar
    28    31    33    1
    29    33    34    1
    30    31    32   ar
    31     4     5   ar
    32    11    12   ar
    33    12    13   ar
    34    13     8   ar
    35     5     1   ar
    36    32    23    1
    37    32    27   ar
@<TRIPOS>MOLECULE
*****
 34 37 0 0 0
SMALL
GASTEIGER

@<TRIPOS>ATOM
      1 C         138.8701  142.0027  158.7890 C.ar    1  UNL1        0.0504
      2 C         139.3713  143.0311  157.8188 C.ar    1  UNL1        0.0060
      3 C         140.1046  144.0835  158.5964 C.ar    1  UNL1        0.0041
      4 C         140.0566  143.7056  160.0473 C.ar    1  UNL1        0.0270
      5 S         139.2936  142.4196  160.1663 S.2     1  UNL1       -0.0903
      6 C         138.0836  140.7733  158.4428 C.3     1  UNL1        0.2384
      7 O         138.6306  139.4158  158.7711 O.3     1  UNL1       -0.4701
      8 C         139.5133  138.3192  163.0453 C.ar    1  UNL1       -0.0099
      9 C         140.6061  138.2754  162.0187 C.ar    1  UNL1       -0.0002
     10 C         140.3119  138.6410  160.5941 C.ar    1  UNL1        0.0366
     11 C         138.9248  139.0503  160.1958 C.ar    1  UNL1        0.1391
     12 C         137.8319  139.0940  161.2224 C.ar    1  UNL1        0.0366
     13 C         138.1262  138.7285  162.6471 C.ar    1  UNL1       -0.0002
     14 C         139.8074  137.9537  164.4700 C.3     1  UNL1        0.0917
     15 C         143.9905  138.3578  166.0789 C.3     1  UNL1        0.0900
     16 C         142.5962  138.2231  165.5426 C.1     1  UNL1       -0.0897
     17 C         141.2018  138.0884  165.0063 C.1     1  UNL1       -0.0872
     18 C         138.7072  137.4534  165.3584 C.3     1  UNL1        0.0591
     19 C         138.0424  138.3864  166.3268 C.2     1  UNL1        0.0517
     20 O         138.3309  139.8573  166.2695 O.co2   1  UNL1       -0.5491
     21 O         137.0890  137.8485  167.3523 O.co2   1  UNL1       -0.5491
     22 C         140.6647  144.4781  161.1802 C.3     1  UNL1        0.1243
     23 N         140.1951  144.2433  162.5853 N.pl3   1  UNL1       -0.3011
     24 C         138.8537  144.7526  163.0228 C.3     1  UNL1        0.0915
     25 C         138.3842  144.5179  164.4279 C.3     1  UNL1        0.0261
     26 C         139.2560  143.7738  165.3956 C.3     1  UNL1        0.0295
     27 C         140.5973  143.2645  164.9581 C.ar    1  UNL1       -0.0058
     28 C         141.4691  142.5205  165.9258 C.ar    1  UNL1       -0.0028
     29 C         142.8104  142.0112  165.4884 C.ar    1  UNL1        0.0029
     30 C         143.2801  142.2460  164.0832 C.ar    1  UNL1        0.0382
     31 C         142.4083  142.9900  163.1155 C.ar    1  UNL1        0.1516
     32 C         141.0669  143.4993  163.5530 C.ar    1  UNL1        0.0785
     33 O         142.8778  143.2248  161.7104 O.3     1  UNL1       -0.4702
     34 C         144.2957  142.9143  161.3317 C.3     1  UNL1        0.2525
@<TRIPOS>UNITY_ATOM_ATTR
20 1
charge -1
@<TRIPOS>BOND
     1    15    16    1
     2    16    17    3
     3    14    17    1
     4    14    18    1
     5    18    19    1
     6    19    20   ar
     7    19    21   ar
     8    14     8    1
     9     8     9   ar
    10     9    10   ar
    11    10    11   ar
    12    11     7    1
    13     7     6    1
    14     6     1    1
    15     1     2   ar
    16     2     3   ar
    17     3     4   ar
    18     4    22    1
    19    22    23    1
    20    23    24    1
    21    24    25    1
    22    25    26    1
    23    26    27    1
    24    27    28   ar
    25    28    29   ar
    26    29    30   ar
    27    30    31   ar
    28    31    33    1
    29    33    34    1
    30    31    32   ar
    31     4     5   ar
    32    11    12   ar
    33    12    13   ar
    34    13     8   ar
    35     5     1   ar
    36    32    23    1
    37    32    27   ar
@<TRIPOS>MOLECULE
*****
 34 37 0 0 0
SMALL
GASTEIGER

@<TRIPOS>ATOM
      1 C         141.4668  145.0086  162.4017 C.ar    1  UNL1        0.0504
      2 C         142.5689  145.3115  163.3731 C.ar    1  UNL1        0.0060
      3 C         143.7410  144.4402  163.0308 C.ar    1  UNL1        0.0041
      4 C         143.3633  143.5989  161.8478 C.ar    1  UNL1        0.0270
      5 S         141.9578  143.9502  161.4590 S.2     1  UNL1       -0.0903
      6 C         140.1117  145.6513  162.3772 C.3     1  UNL1        0.2384
      7 O         138.9573  144.9940  163.0737 O.3     1  UNL1       -0.4701
      8 C         139.6389  141.3214  165.5831 C.ar    1  UNL1       -0.0099
      9 C         138.9881  141.1998  164.2371 C.ar    1  UNL1       -0.0002
     10 C         138.7609  142.4240  163.4007 C.ar    1  UNL1        0.0366
     11 C         139.1845  143.7698  163.9102 C.ar    1  UNL1        0.1391
     12 C         139.8353  143.8914  165.2562 C.ar    1  UNL1        0.0366
     13 C         140.0625  142.6671  166.0926 C.ar    1  UNL1       -0.0002
     14 C         139.8662  140.0972  166.4196 C.3     1  UNL1        0.0917
     15 C         143.9298  138.1668  166.5255 C.3     1  UNL1        0.0900
     16 C         142.5752  138.8103  166.4902 C.1     1  UNL1       -0.0897
     17 C         141.2207  139.4537  166.4549 C.1     1  UNL1       -0.0872
     18 C         138.7389  139.5165  167.2208 C.3     1  UNL1        0.0591
     19 C         138.0008  138.3128  166.7142 C.2     1  UNL1        0.0517
     20 O         138.4080  137.6733  165.4198 O.co2   1  UNL1       -0.5491
     21 O         136.8558  137.7487  167.5019 O.co2   1  UNL1       -0.5491
     22 C         144.2376  142.5844  161.1722 C.3     1  UNL1        0.1243
     23 N         144.0528  141.1240  161.4608 N.pl3   1  UNL1       -0.3011
     24 C         144.3524  140.5861  162.8286 C.3     1  UNL1        0.0915
     25 C         144.1676  139.1258  163.1171 C.3     1  UNL1        0.0261
     26 C         143.6832  138.2034  162.0379 C.3     1  UNL1        0.0295
     27 C         143.3837  138.7414  160.6702 C.ar    1  UNL1       -0.0058
     28 C         142.8993  137.8190  159.5910 C.ar    1  UNL1       -0.0028
     29 C         142.5997  138.3570  158.2232 C.ar    1  UNL1        0.0029
     30 C         142.7845  139.8174  157.9346 C.ar    1  UNL1        0.0382
     31 C         143.2689  140.7397  159.0138 C.ar    1  UNL1        0.1516
     32 C         143.5685  140.2017  160.3816 C.ar    1  UNL1        0.0785
     33 O         143.4537  142.2000  158.7252 O.3     1  UNL1       -0.4702
     34 C         144.2063  142.6335  157.5022 C.3     1  UNL1        0.2525
@<TRIPOS>UNITY_ATOM_ATTR
20 1
charge -1
@<TRIPOS>BOND
     1    15    16    1
     2    16    17    3
     3    14    17    1
     4    14    18    1
     5    18    19    1
     6    19    20   ar
     7    19    21   ar
     8    14     8    1
     9     8     9   ar
    10     9    10   ar
    11    10    11   ar
    12    11     7    1
    13     7     6    1
    14     6     1    1
    15     1     2   ar
    16     2     3   ar
    17     3     4   ar
    18     4    22    1
    19    22    23    1
    20    23    24    1
    21    24    25    1
    22    25    26    1
    23    26    27    1
    24    27    28   ar
    25    28    29   ar
    26    29    30   ar
    27    30    31   ar
    28    31    33    1
    29    33    34    1
    30    31    32   ar
    31     4     5   ar
    32    11    12   ar
    33    12    13   ar
    34    13     8   ar
    35     5     1   ar
    36    32    23    1
    37    32    27   ar
@<TRIPOS>MOLECULE
*****
 34 37 0 0 0
SMALL
GASTEIGER

@<TRIPOS>ATOM
      1 C         143.8148  142.5417  160.3126 C.ar    1  UNL1        0.0504
      2 C         143.6780  142.4769  158.8203 C.ar    1  UNL1        0.0060
      3 C         142.2175  142.3779  158.4926 C.ar    1  UNL1        0.0041
      4 C         141.4518  142.3815  159.7824 C.ar    1  UNL1        0.0270
      5 S         142.4390  142.4828  160.9072 S.2     1  UNL1       -0.0903
      6 C         145.1016  142.6471  161.0763 C.3     1  UNL1        0.2384
      7 O         145.3937  141.6854  162.1897 O.3     1  UNL1       -0.4701
      8 C         142.6980  141.5248  165.7894 C.ar    1  UNL1       -0.0099
      9 C         142.8645  140.3121  164.9223 C.ar    1  UNL1       -0.0002
     10 C         143.7630  140.3657  163.7225 C.ar    1  UNL1        0.0366
     11 C         144.4952  141.6319  163.3896 C.ar    1  UNL1        0.1391
     12 C         144.3288  142.8446  164.2567 C.ar    1  UNL1        0.0366
     13 C         143.4302  142.7909  165.4565 C.ar    1  UNL1       -0.0002
     14 C         141.7995  141.4713  166.9892 C.3     1  UNL1        0.0917
     15 C         138.0896  138.9256  166.9104 C.3     1  UNL1        0.0900
     16 C         139.3262  139.7742  166.9367 C.1     1  UNL1       -0.0897
     17 C         140.5629  140.6227  166.9630 C.1     1  UNL1       -0.0872
     18 C         142.1376  142.2664  168.2154 C.3     1  UNL1        0.0591
     19 C         143.2125  141.7887  169.1463 C.2     1  UNL1        0.0517
     20 O         144.2852  142.7335  169.6011 O.co2   1  UNL1       -0.5491
     21 O         143.2148  140.3663  169.6223 O.co2   1  UNL1       -0.5491
     22 C         139.9607  142.2984  159.9228 C.3     1  UNL1        0.1243
     23 N         139.3563  141.5693  161.0861 N.pl3   1  UNL1       -0.3011
     24 C         139.2870  140.0709  161.0780 C.3     1  UNL1        0.0915
     25 C         138.6827  139.3419  162.2413 C.3     1  UNL1        0.0261
     26 C         138.1477  140.1112  163.4126 C.3     1  UNL1        0.0295
     27 C         138.2170  141.6095  163.4207 C.ar    1  UNL1       -0.0058
     28 C         137.6820  142.3788  164.5920 C.ar    1  UNL1       -0.0028
     29 C         137.7514  143.8771  164.6000 C.ar    1  UNL1        0.0029
     30 C         138.3557  144.6063  163.4367 C.ar    1  UNL1        0.0382
     31 C         138.8907  143.8370  162.2654 C.ar    1  UNL1        0.1516
     32 C         138.8213  142.3385  162.2574 C.ar    1  UNL1        0.0785
     33 O         139.4950  144.5660  161.1021 O.3     1  UNL1       -0.4702
     34 C         140.0325  145.9546  161.2845 C.3     1  UNL1        0.2525
@<TRIPOS>UNITY_ATOM_ATTR
20 1
charge -1
@<TRIPOS>BOND
     1    15    16    1
     2    16    17    3
     3    14    17    1
     4    14    18    1
     5    18    19    1
     6    19    20   ar
     7    19    21   ar
     8    14     8    1
     9     8     9   ar
    10     9    10   ar
    11    10    11   ar
    12    11     7    1
    13     7     6    1
    14     6     1    1
    15     1     2   ar
    16     2     3   ar
    17     3     4   ar
    18     4    22    1
    19    22    23    1
    20    23    24    1
    21    24    25    1
    22    25    26    1
    23    26    27    1
    24    27    28   ar
    25    28    29   ar
    26    29    30   ar
    27    30    31   ar
    28    31    33    1
    29    33    34    1
    30    31    32   ar
    31     4     5   ar
    32    11    12   ar
    33    12    13   ar
    34    13     8   ar
    35     5     1   ar
    36    32    23    1
    37    32    27   ar
