@<TRIPOS>MOLECULE
*****
 26 30 0 0 0
SMALL
GASTEIGER

@<TRIPOS>ATOM
      1 O         138.0449  139.5283  165.6931 O.2     1  UNL1       -0.2520
      2 C         139.3904  138.9725  165.3315 C.2     1  UNL1        0.3111
      3 N         139.6934  138.0912  164.1561 N.am    1  UNL1       -0.2606
      4 C         141.1594  137.7743  164.1801 C.3     1  UNL1        0.1169
      5 C         141.7623  138.4598  165.3703 C.3     1  UNL1        0.1212
      6 N         140.6690  139.2003  166.0820 N.am    1  UNL1       -0.2414
      7 C         140.8268  140.0239  167.3256 C.ar    1  UNL1        0.0555
      8 C         139.7156  140.0836  168.3315 C.ar    1  UNL1        0.0181
      9 C         139.8733  140.9072  169.5752 C.ar    1  UNL1        0.0388
     10 C         141.1421  141.6711  169.8130 C.ar    1  UNL1        0.1455
     11 O         141.5821  142.5613  170.9373 O.2     1  UNL1       -0.4504
     12 C         142.9651  143.0518  170.6263 C.ar    1  UNL1        0.1796
     13 C         143.3799  142.4647  169.3097 C.ar    1  UNL1        0.0437
     14 C         142.2532  141.6114  168.8071 C.ar    1  UNL1        0.0389
     15 C         142.0956  140.7878  167.5634 C.ar    1  UNL1        0.0181
     16 C         138.7041  137.6111  163.1359 C.3     1  UNL1        0.1123
     17 C         138.2169  138.5436  162.0668 C.3     1  UNL1        0.0944
     18 N         138.4880  140.0150  162.1744 N.3     1  UNL1       -0.2637
     19 C         137.5256  141.0553  162.6658 C.3     1  UNL1        0.0992
     20 C         138.2120  142.3876  162.6045 C.ar    1  UNL1       -0.0088
     21 C         137.7534  143.7703  162.9624 C.ar    1  UNL1       -0.0032
     22 C         138.6816  144.9360  162.7908 C.ar    1  UNL1       -0.0003
     23 C         140.0682  144.7192  162.2614 C.ar    1  UNL1       -0.0003
     24 C         140.5267  143.3366  161.9036 C.ar    1  UNL1       -0.0032
     25 C         139.5986  142.1708  162.0752 C.ar    1  UNL1       -0.0088
     26 C         139.7692  140.7044  161.8093 C.3     1  UNL1        0.0992
@<TRIPOS>BOND
     1     1     2    2
     2     2     3   am
     3     3    16    1
     4    16    17    1
     5    17    18    1
     6    18    19    1
     7    19    20    1
     8    20    21   ar
     9    21    22   ar
    10    22    23   ar
    11    23    24   ar
    12    24    25   ar
    13    25    26    1
    14     3     4    1
    15     4     5    1
    16     5     6    1
    17     6     7    1
    18     7     8   ar
    19     8     9   ar
    20     9    10   ar
    21    10    11   ar
    22    11    12   ar
    23    12    13   ar
    24    13    14   ar
    25    14    15   ar
    26     6     2   am
    27    15     7   ar
    28    26    18    1
    29    14    10   ar
    30    25    20   ar
@<TRIPOS>MOLECULE
*****
 26 30 0 0 0
SMALL
GASTEIGER

@<TRIPOS>ATOM
      1 O         138.0738  139.4846  165.7385 O.2     1  UNL1       -0.2520
      2 C         139.4284  138.9715  165.3489 C.2     1  UNL1        0.3111
      3 N         139.7363  138.1096  164.1605 N.am    1  UNL1       -0.2606
      4 C         141.2111  137.8356  164.1563 C.3     1  UNL1        0.1169
      5 C         141.8146  138.5282  165.3422 C.3     1  UNL1        0.1212
      6 N         140.7128  139.2303  166.0792 N.am    1  UNL1       -0.2414
      7 C         140.8681  140.0475  167.3273 C.ar    1  UNL1        0.0555
      8 C         139.7584  140.0953  168.3354 C.ar    1  UNL1        0.0181
      9 C         139.9137  140.9125  169.5836 C.ar    1  UNL1        0.0388
     10 C         141.1788  141.6819  169.8237 C.ar    1  UNL1        0.1455
     11 O         141.6158  142.5680  170.9525 O.2     1  UNL1       -0.4504
     12 C         142.9956  143.0677  170.6420 C.ar    1  UNL1        0.1796
     13 C         143.4114  142.4906  169.3213 C.ar    1  UNL1        0.0437
     14 C         142.2885  141.6341  168.8156 C.ar    1  UNL1        0.0389
     15 C         142.1332  140.8169  167.5674 C.ar    1  UNL1        0.0181
     16 C         138.7438  137.6094  163.1531 C.3     1  UNL1        0.1123
     17 C         138.0932  138.5687  162.2011 C.3     1  UNL1        0.0944
     18 N         138.4050  140.0337  162.2825 N.3     1  UNL1       -0.2637
     19 C         139.7038  140.6811  161.9032 C.3     1  UNL1        0.0992
     20 C         139.5742  142.1560  162.1437 C.ar    1  UNL1       -0.0088
     21 C         140.5336  143.2927  161.9503 C.ar    1  UNL1       -0.0032
     22 C         140.1141  144.6934  162.2847 C.ar    1  UNL1       -0.0003
     23 C         138.7352  144.9575  162.8127 C.ar    1  UNL1       -0.0003
     24 C         137.7757  143.8209  163.0062 C.ar    1  UNL1       -0.0032
     25 C         138.1952  142.4201  162.6717 C.ar    1  UNL1       -0.0088
     26 C         137.4726  141.1085  162.7574 C.3     1  UNL1        0.0992
@<TRIPOS>BOND
     1     1     2    2
     2     2     3   am
     3     3    16    1
     4    16    17    1
     5    17    18    1
     6    18    19    1
     7    19    20    1
     8    20    21   ar
     9    21    22   ar
    10    22    23   ar
    11    23    24   ar
    12    24    25   ar
    13    25    26    1
    14     3     4    1
    15     4     5    1
    16     5     6    1
    17     6     7    1
    18     7     8   ar
    19     8     9   ar
    20     9    10   ar
    21    10    11   ar
    22    11    12   ar
    23    12    13   ar
    24    13    14   ar
    25    14    15   ar
    26     6     2   am
    27    15     7   ar
    28    26    18    1
    29    14    10   ar
    30    25    20   ar
@<TRIPOS>MOLECULE
*****
 26 30 0 0 0
SMALL
GASTEIGER

@<TRIPOS>ATOM
      1 O         143.0470  138.6911  164.5245 O.2     1  UNL1       -0.2520
      2 C         141.9570  138.4999  163.5119 C.2     1  UNL1        0.3111
      3 N         142.1500  138.2272  162.0496 N.am    1  UNL1       -0.2606
      4 C         140.7949  138.1066  161.4178 C.3     1  UNL1        0.1169
      5 C         139.7644  138.3049  162.4897 C.3     1  UNL1        0.1212
      6 N         140.4827  138.5479  163.7839 N.am    1  UNL1       -0.2414
      7 C         139.8395  138.7956  165.1161 C.ar    1  UNL1        0.0555
      8 C         138.4982  138.1987  165.4239 C.ar    1  UNL1        0.0181
      9 C         137.8549  138.4462  166.7561 C.ar    1  UNL1        0.0388
     10 C         138.5529  139.2907  167.7806 C.ar    1  UNL1        0.1455
     11 O         138.1685  139.7060  169.1699 O.2     1  UNL1       -0.4504
     12 C         139.2722  140.5595  169.7207 C.ar    1  UNL1        0.1796
     13 C         140.3388  140.6718  168.6719 C.ar    1  UNL1        0.0437
     14 C         139.8942  139.8876  167.4729 C.ar    1  UNL1        0.0389
     15 C         140.5375  139.6400  166.1406 C.ar    1  UNL1        0.0181
     16 C         143.4669  138.0977  161.3431 C.3     1  UNL1        0.1123
     17 C         144.2199  139.3271  160.9290 C.3     1  UNL1        0.0944
     18 N         144.0212  140.6145  161.6728 N.3     1  UNL1       -0.2637
     19 C         144.7680  141.0486  162.8991 C.3     1  UNL1        0.0992
     20 C         144.2491  142.3962  163.3051 C.ar    1  UNL1       -0.0088
     21 C         144.6108  143.3116  164.4369 C.ar    1  UNL1       -0.0032
     22 C         143.9049  144.6258  164.5934 C.ar    1  UNL1       -0.0003
     23 C         142.8374  145.0246  163.6180 C.ar    1  UNL1       -0.0003
     24 C         142.4757  144.1091  162.4862 C.ar    1  UNL1       -0.0032
     25 C         143.1816  142.7949  162.3298 C.ar    1  UNL1       -0.0088
     26 C         143.0407  141.6937  161.3210 C.3     1  UNL1        0.0992
@<TRIPOS>BOND
     1     1     2    2
     2     2     3   am
     3     3    16    1
     4    16    17    1
     5    17    18    1
     6    18    19    1
     7    19    20    1
     8    20    21   ar
     9    21    22   ar
    10    22    23   ar
    11    23    24   ar
    12    24    25   ar
    13    25    26    1
    14     3     4    1
    15     4     5    1
    16     5     6    1
    17     6     7    1
    18     7     8   ar
    19     8     9   ar
    20     9    10   ar
    21    10    11   ar
    22    11    12   ar
    23    12    13   ar
    24    13    14   ar
    25    14    15   ar
    26     6     2   am
    27    15     7   ar
    28    26    18    1
    29    14    10   ar
    30    25    20   ar
@<TRIPOS>MOLECULE
*****
 26 30 0 0 0
SMALL
GASTEIGER

@<TRIPOS>ATOM
      1 O         144.0041  143.1725  165.4783 O.2     1  UNL1       -0.2520
      2 C         143.9695  141.7261  165.0824 C.2     1  UNL1        0.3111
      3 N         144.5943  141.1330  163.8545 N.am    1  UNL1       -0.2606
      4 C         144.3149  139.6591  163.8581 C.3     1  UNL1        0.1169
      5 C         143.5175  139.3416  165.0882 C.3     1  UNL1        0.1212
      6 N         143.3040  140.6190  165.8449 N.am    1  UNL1       -0.2414
      7 C         142.5563  140.7638  167.1371 C.ar    1  UNL1        0.0555
      8 C         142.4930  139.6152  168.0998 C.ar    1  UNL1        0.0181
      9 C         141.7453  139.7600  169.3920 C.ar    1  UNL1        0.0388
     10 C         141.0609  141.0534  169.7216 C.ar    1  UNL1        0.1455
     11 O         140.2549  141.4882  170.9097 O.2     1  UNL1       -0.4504
     12 C         139.8200  142.9055  170.6813 C.ar    1  UNL1        0.1796
     13 C         140.3572  143.3467  169.3520 C.ar    1  UNL1        0.0437
     14 C         141.1241  142.2020  168.7589 C.ar    1  UNL1        0.0389
     15 C         141.8718  142.0572  167.4667 C.ar    1  UNL1        0.0181
     16 C         145.3634  141.8820  162.8069 C.3     1  UNL1        0.1123
     17 C         144.6345  142.7023  161.7843 C.3     1  UNL1        0.0944
     18 N         143.1818  143.0228  161.9768 N.3     1  UNL1       -0.2637
     19 C         142.6259  144.3111  162.5072 C.3     1  UNL1        0.0992
     20 C         141.1305  144.1959  162.5309 C.ar    1  UNL1       -0.0088
     21 C         140.0567  145.1532  162.9555 C.ar    1  UNL1       -0.0032
     22 C         138.6145  144.7510  162.8643 C.ar    1  UNL1       -0.0003
     23 C         138.2462  143.3915  162.3486 C.ar    1  UNL1       -0.0003
     24 C         139.3200  142.4341  161.9240 C.ar    1  UNL1       -0.0032
     25 C         140.7622  142.8363  162.0152 C.ar    1  UNL1       -0.0088
     26 C         142.0299  142.1114  161.6727 C.3     1  UNL1        0.0992
@<TRIPOS>BOND
     1     1     2    2
     2     2     3   am
     3     3    16    1
     4    16    17    1
     5    17    18    1
     6    18    19    1
     7    19    20    1
     8    20    21   ar
     9    21    22   ar
    10    22    23   ar
    11    23    24   ar
    12    24    25   ar
    13    25    26    1
    14     3     4    1
    15     4     5    1
    16     5     6    1
    17     6     7    1
    18     7     8   ar
    19     8     9   ar
    20     9    10   ar
    21    10    11   ar
    22    11    12   ar
    23    12    13   ar
    24    13    14   ar
    25    14    15   ar
    26     6     2   am
    27    15     7   ar
    28    26    18    1
    29    14    10   ar
    30    25    20   ar
@<TRIPOS>MOLECULE
*****
 26 30 0 0 0
SMALL
GASTEIGER

@<TRIPOS>ATOM
      1 O         144.4999  139.4902  164.2843 O.2     1  UNL1       -0.2520
      2 C         143.2347  138.7942  163.8783 C.2     1  UNL1        0.3111
      3 N         142.9364  138.2274  162.5219 N.am    1  UNL1       -0.2606
      4 C         141.5629  137.6257  162.5628 C.3     1  UNL1        0.1169
      5 C         141.0124  137.8206  163.9445 C.3     1  UNL1        0.1212
      6 N         142.0456  138.5428  164.7575 N.am    1  UNL1       -0.2414
      7 C         141.9130  138.9432  166.1969 C.ar    1  UNL1        0.0555
      8 C         143.0651  138.7509  167.1381 C.ar    1  UNL1        0.0181
      9 C         142.9326  139.1512  168.5775 C.ar    1  UNL1        0.0388
     10 C         141.6479  139.7440  169.0759 C.ar    1  UNL1        0.1455
     11 O         141.2257  140.2299  170.4308 O.2     1  UNL1       -0.4504
     12 C         139.8127  140.7225  170.3270 C.ar    1  UNL1        0.1796
     13 C         139.3616  140.5411  168.9080 C.ar    1  UNL1        0.0437
     14 C         140.4958  139.9363  168.1347 C.ar    1  UNL1        0.0389
     15 C         140.6284  139.5359  166.6953 C.ar    1  UNL1        0.0181
     16 C         143.8509  138.2571  161.3333 C.3     1  UNL1        0.1123
     17 C         144.0228  139.5252  160.5508 C.3     1  UNL1        0.0944
     18 N         143.6599  140.8429  161.1687 N.3     1  UNL1       -0.2637
     19 C         142.2768  141.4118  161.2837 C.3     1  UNL1        0.0992
     20 C         142.3786  142.7437  161.9663 C.ar    1  UNL1       -0.0088
     21 C         141.3413  143.7577  162.3481 C.ar    1  UNL1       -0.0032
     22 C         141.7502  145.0260  163.0366 C.ar    1  UNL1       -0.0003
     23 C         143.1963  145.2803  163.3435 C.ar    1  UNL1       -0.0003
     24 C         144.2335  144.2662  162.9617 C.ar    1  UNL1       -0.0032
     25 C         143.8247  142.9979  162.2731 C.ar    1  UNL1       -0.0088
     26 C         144.6166  141.8232  161.7802 C.3     1  UNL1        0.0992
@<TRIPOS>BOND
     1     1     2    2
     2     2     3   am
     3     3    16    1
     4    16    17    1
     5    17    18    1
     6    18    19    1
     7    19    20    1
     8    20    21   ar
     9    21    22   ar
    10    22    23   ar
    11    23    24   ar
    12    24    25   ar
    13    25    26    1
    14     3     4    1
    15     4     5    1
    16     5     6    1
    17     6     7    1
    18     7     8   ar
    19     8     9   ar
    20     9    10   ar
    21    10    11   ar
    22    11    12   ar
    23    12    13   ar
    24    13    14   ar
    25    14    15   ar
    26     6     2   am
    27    15     7   ar
    28    26    18    1
    29    14    10   ar
    30    25    20   ar
@<TRIPOS>MOLECULE
*****
 26 30 0 0 0
SMALL
GASTEIGER

@<TRIPOS>ATOM
      1 O         142.6981  138.4859  165.5964 O.2     1  UNL1       -0.2520
      2 C         141.2419  138.6580  165.2803 C.2     1  UNL1        0.3111
      3 N         140.5245  138.0898  164.0919 N.am    1  UNL1       -0.2606
      4 C         139.0866  138.5092  164.1742 C.3     1  UNL1        0.1169
      5 C         138.9155  139.3367  165.4136 C.3     1  UNL1        0.1212
      6 N         140.2475  139.4287  166.0972 N.am    1  UNL1       -0.2414
      7 C         140.5346  140.1625  167.3735 C.ar    1  UNL1        0.0555
      8 C         139.5544  140.1064  168.5076 C.ar    1  UNL1        0.0181
      9 C         139.8415  140.8401  169.7840 C.ar    1  UNL1        0.0388
     10 C         141.1087  141.6300  169.9262 C.ar    1  UNL1        0.1455
     11 O         141.6593  142.4493  171.0557 O.2     1  UNL1       -0.4504
     12 C         142.9797  143.0118  170.6197 C.ar    1  UNL1        0.1796
     13 C         143.2453  142.5401  169.2207 C.ar    1  UNL1        0.0437
     14 C         142.0889  141.6861  168.7922 C.ar    1  UNL1        0.0389
     15 C         141.8018  140.9523  167.5158 C.ar    1  UNL1        0.0181
     16 C         141.1373  137.2496  163.0109 C.3     1  UNL1        0.1123
     17 C         142.0085  137.8864  161.9690 C.3     1  UNL1        0.0944
     18 N         142.3818  139.3344  162.0865 N.3     1  UNL1       -0.2637
     19 C         141.4794  140.5022  161.8182 C.3     1  UNL1        0.0992
     20 C         142.2630  141.7584  162.0588 C.ar    1  UNL1       -0.0088
     21 C         141.8930  143.2081  161.9521 C.ar    1  UNL1       -0.0032
     22 C         142.9097  144.2664  162.2623 C.ar    1  UNL1       -0.0003
     23 C         144.2964  143.8751  162.6793 C.ar    1  UNL1       -0.0003
     24 C         144.6664  142.4254  162.7860 C.ar    1  UNL1       -0.0032
     25 C         143.6497  141.3671  162.4758 C.ar    1  UNL1       -0.0088
     26 C         143.7231  139.8690  162.4929 C.3     1  UNL1        0.0992
@<TRIPOS>BOND
     1     1     2    2
     2     2     3   am
     3     3    16    1
     4    16    17    1
     5    17    18    1
     6    18    19    1
     7    19    20    1
     8    20    21   ar
     9    21    22   ar
    10    22    23   ar
    11    23    24   ar
    12    24    25   ar
    13    25    26    1
    14     3     4    1
    15     4     5    1
    16     5     6    1
    17     6     7    1
    18     7     8   ar
    19     8     9   ar
    20     9    10   ar
    21    10    11   ar
    22    11    12   ar
    23    12    13   ar
    24    13    14   ar
    25    14    15   ar
    26     6     2   am
    27    15     7   ar
    28    26    18    1
    29    14    10   ar
    30    25    20   ar
@<TRIPOS>MOLECULE
*****
 26 30 0 0 0
SMALL
GASTEIGER

@<TRIPOS>ATOM
      1 O         141.6703  139.8724  162.2315 O.2     1  UNL1       -0.2520
      2 C         140.5022  139.0205  162.6312 C.2     1  UNL1        0.3111
      3 N         139.4506  138.4777  161.7095 N.am    1  UNL1       -0.2606
      4 C         138.4791  137.6834  162.5314 C.3     1  UNL1        0.1169
      5 C         138.9303  137.7355  163.9610 C.3     1  UNL1        0.1212
      6 N         140.1807  138.5618  164.0226 N.am    1  UNL1       -0.2414
      7 C         140.9707  138.8745  165.2587 C.ar    1  UNL1        0.0555
      8 C         142.3904  138.4058  165.3799 C.ar    1  UNL1        0.0181
      9 C         143.1806  138.7185  166.6160 C.ar    1  UNL1        0.0388
     10 C         142.5509  139.4999  167.7309 C.ar    1  UNL1        0.1455
     11 O         143.0777  139.9558  169.0594 O.2     1  UNL1       -0.4504
     12 C         141.9836  140.7063  169.7592 C.ar    1  UNL1        0.1796
     13 C         140.7805  140.7142  168.8632 C.ar    1  UNL1        0.0437
     14 C         141.1312  139.9686  167.6097 C.ar    1  UNL1        0.0389
     15 C         140.3411  139.6559  166.3736 C.ar    1  UNL1        0.0181
     16 C         139.3825  138.6915  160.2264 C.3     1  UNL1        0.1123
     17 C         138.6500  139.8775  159.6725 C.3     1  UNL1        0.0944
     18 N         138.8656  141.2372  160.2679 N.3     1  UNL1       -0.2637
     19 C         138.1664  141.7931  161.4729 C.3     1  UNL1        0.0992
     20 C         138.6869  143.1793  161.7126 C.ar    1  UNL1       -0.0088
     21 C         138.3631  144.2064  162.7567 C.ar    1  UNL1       -0.0032
     22 C         139.0603  145.5345  162.7438 C.ar    1  UNL1       -0.0003
     23 C         140.0813  145.8354  161.6869 C.ar    1  UNL1       -0.0003
     24 C         140.4051  144.8082  160.6429 C.ar    1  UNL1       -0.0032
     25 C         139.7079  143.4802  160.6557 C.ar    1  UNL1       -0.0088
     26 C         139.8183  142.2800  159.7628 C.3     1  UNL1        0.0992
@<TRIPOS>BOND
     1     1     2    2
     2     2     3   am
     3     3    16    1
     4    16    17    1
     5    17    18    1
     6    18    19    1
     7    19    20    1
     8    20    21   ar
     9    21    22   ar
    10    22    23   ar
    11    23    24   ar
    12    24    25   ar
    13    25    26    1
    14     3     4    1
    15     4     5    1
    16     5     6    1
    17     6     7    1
    18     7     8   ar
    19     8     9   ar
    20     9    10   ar
    21    10    11   ar
    22    11    12   ar
    23    12    13   ar
    24    13    14   ar
    25    14    15   ar
    26     6     2   am
    27    15     7   ar
    28    26    18    1
    29    14    10   ar
    30    25    20   ar
@<TRIPOS>MOLECULE
*****
 26 30 0 0 0
SMALL
GASTEIGER

@<TRIPOS>ATOM
      1 O         140.2371  138.2248  165.1407 O.2     1  UNL1       -0.2520
      2 C         141.6141  138.7217  164.8134 C.2     1  UNL1        0.3111
      3 N         142.3423  138.5125  163.5188 N.am    1  UNL1       -0.2606
      4 C         143.6829  139.1766  163.6285 C.3     1  UNL1        0.1169
      5 C         143.7831  139.7961  164.9909 C.3     1  UNL1        0.1212
      6 N         142.5045  139.5150  165.7232 N.am    1  UNL1       -0.2414
      7 C         142.1744  139.9507  167.1200 C.ar    1  UNL1        0.0555
      8 C         142.6614  139.1490  168.2905 C.ar    1  UNL1        0.0181
      9 C         142.3314  139.5846  169.6874 C.ar    1  UNL1        0.0388
     10 C         141.5143  140.8220  169.9137 C.ar    1  UNL1        0.1455
     11 O         141.0348  141.4930  171.1668 O.2     1  UNL1       -0.4504
     12 C         140.2515  142.7093  170.7707 C.ar    1  UNL1        0.1796
     13 C         140.2468  142.7902  169.2728 C.ar    1  UNL1        0.0437
     14 C         141.0273  141.6237  168.7432 C.ar    1  UNL1        0.0389
     15 C         141.3573  141.1881  167.3464 C.ar    1  UNL1        0.0181
     16 C         141.8214  137.7698  162.3242 C.3     1  UNL1        0.1123
     17 C         140.8957  138.4525  161.3615 C.3     1  UNL1        0.0944
     18 N         140.2848  139.7752  161.7185 N.3     1  UNL1       -0.2637
     19 C         140.9146  141.1211  161.5144 C.3     1  UNL1        0.0992
     20 C         139.9558  142.1619  162.0119 C.ar    1  UNL1       -0.0088
     21 C         140.0380  143.6587  162.0652 C.ar    1  UNL1       -0.0032
     22 C         138.8977  144.4527  162.6302 C.ar    1  UNL1       -0.0003
     23 C         137.6752  143.7499  163.1418 C.ar    1  UNL1       -0.0003
     24 C         137.5931  142.2532  163.0885 C.ar    1  UNL1       -0.0032
     25 C         138.7334  141.4591  162.5236 C.ar    1  UNL1       -0.0088
     26 C         138.9367  139.9841  162.3422 C.3     1  UNL1        0.0992
@<TRIPOS>BOND
     1     1     2    2
     2     2     3   am
     3     3    16    1
     4    16    17    1
     5    17    18    1
     6    18    19    1
     7    19    20    1
     8    20    21   ar
     9    21    22   ar
    10    22    23   ar
    11    23    24   ar
    12    24    25   ar
    13    25    26    1
    14     3     4    1
    15     4     5    1
    16     5     6    1
    17     6     7    1
    18     7     8   ar
    19     8     9   ar
    20     9    10   ar
    21    10    11   ar
    22    11    12   ar
    23    12    13   ar
    24    13    14   ar
    25    14    15   ar
    26     6     2   am
    27    15     7   ar
    28    26    18    1
    29    14    10   ar
    30    25    20   ar
@<TRIPOS>MOLECULE
*****
 26 30 0 0 0
SMALL
GASTEIGER

@<TRIPOS>ATOM
      1 O         143.6189  142.9262  165.6721 O.2     1  UNL1       -0.2520
      2 C         142.3588  143.2030  164.9068 C.2     1  UNL1        0.3111
      3 N         142.2562  143.9828  163.6296 N.am    1  UNL1       -0.2606
      4 C         140.8140  144.0103  163.2178 C.3     1  UNL1        0.1169
      5 C         140.0254  143.2474  164.2407 C.3     1  UNL1        0.1212
      6 N         140.9801  142.7485  165.2845 N.am    1  UNL1       -0.2414
      7 C         140.6194  141.9375  166.4937 C.ar    1  UNL1        0.0555
      8 C         139.7738  140.7073  166.3467 C.ar    1  UNL1        0.0181
      9 C         139.4130  139.8963  167.5558 C.ar    1  UNL1        0.0388
     10 C         139.8978  140.3155  168.9120 C.ar    1  UNL1        0.1455
     11 O         139.7047  139.7201  170.2752 O.2     1  UNL1       -0.4504
     12 C         140.4308  140.5824  171.2648 C.ar    1  UNL1        0.1796
     13 C         141.0728  141.7107  170.5131 C.ar    1  UNL1        0.0437
     14 C         140.7434  141.5457  169.0590 C.ar    1  UNL1        0.0389
     15 C         141.1042  142.3567  167.8498 C.ar    1  UNL1        0.0181
     16 C         143.3956  144.6227  162.8933 C.3     1  UNL1        0.1123
     17 C         144.4846  143.7715  162.3107 C.3     1  UNL1        0.0944
     18 N         144.1711  142.3940  161.8063 N.3     1  UNL1       -0.2637
     19 C         143.5520  142.0599  160.4816 C.3     1  UNL1        0.0992
     20 C         143.4199  140.5683  160.3946 C.ar    1  UNL1       -0.0088
     21 C         142.8796  139.6693  159.3223 C.ar    1  UNL1       -0.0032
     22 C         142.8769  138.1826  159.5210 C.ar    1  UNL1       -0.0003
     23 C         143.4145  137.5948  160.7920 C.ar    1  UNL1       -0.0003
     24 C         143.9547  138.4937  161.8643 C.ar    1  UNL1       -0.0032
     25 C         143.9574  139.9805  161.6656 C.ar    1  UNL1       -0.0088
     26 C         144.4217  141.1089  162.5381 C.3     1  UNL1        0.0992
@<TRIPOS>BOND
     1     1     2    2
     2     2     3   am
     3     3    16    1
     4    16    17    1
     5    17    18    1
     6    18    19    1
     7    19    20    1
     8    20    21   ar
     9    21    22   ar
    10    22    23   ar
    11    23    24   ar
    12    24    25   ar
    13    25    26    1
    14     3     4    1
    15     4     5    1
    16     5     6    1
    17     6     7    1
    18     7     8   ar
    19     8     9   ar
    20     9    10   ar
    21    10    11   ar
    22    11    12   ar
    23    12    13   ar
    24    13    14   ar
    25    14    15   ar
    26     6     2   am
    27    15     7   ar
    28    26    18    1
    29    14    10   ar
    30    25    20   ar
