@<TRIPOS>MOLECULE
*****
 37 41 0 0 0
SMALL
GASTEIGER

@<TRIPOS>ATOM
      1 C         141.6827  142.0965  160.4581 C.3     1  UNL1        0.0900
      2 C         141.6599  142.1657  158.9599 C.3     1  UNL1        0.0106
      3 C         140.4881  141.6163  158.2016 C.3     1  UNL1        0.0005
      4 C         139.3392  140.9978  158.9415 C.3     1  UNL1        0.0000
      5 C         138.0236  140.3218  159.1911 C.3     1  UNL1        0.0000
      6 C         138.8594  140.8322  157.5300 C.3     1  UNL1        0.0000
      7 C         139.3620  140.9287  160.4397 C.3     1  UNL1        0.0010
      8 C         140.5338  141.4780  161.1980 C.3     1  UNL1        0.0173
      9 C         140.5568  141.4088  162.6963 C.3     1  UNL1        0.0627
     10 C         139.4079  140.7903  163.4362 C.2     1  UNL1        0.1721
     11 O         138.2360  140.2410  162.6778 O.2     1  UNL1       -0.2914
     12 C         139.4308  140.7212  164.9344 C.2     1  UNL1        0.0292
     13 C         140.6026  141.2705  165.6928 C.2     1  UNL1       -0.0388
     14 C         140.6255  141.2013  167.1910 C.3     1  UNL1        0.0349
     15 C         139.4537  140.6520  166.4327 C.3     1  UNL1        0.0085
     16 C         139.4766  140.5828  167.9309 C.2     1  UNL1       -0.0098
     17 C         139.4995  140.5137  169.4291 C.2     1  UNL1        0.0990
     18 C         140.6713  141.0630  170.1874 C.2     1  UNL1        0.1815
     19 O         140.6942  140.9938  171.6856 O.2     1  UNL1       -0.2907
     20 C         141.8202  141.6815  169.4475 C.3     1  UNL1        0.0568
     21 C         143.1357  142.3575  169.1979 C.3     1  UNL1        0.0077
     22 C         142.3000  141.8471  170.8591 C.3     1  UNL1        0.0077
     23 C         141.7973  141.7507  167.9493 C.3     1  UNL1        0.0141
     24 C         142.9462  142.3692  167.2094 C.3     1  UNL1        0.0014
     25 C         142.9233  142.4384  165.7112 C.3     1  UNL1        0.0038
     26 C         141.7515  141.8890  164.9529 C.3     1  UNL1        0.0159
     27 C         140.5797  141.3397  164.1945 C.3     1  UNL1        0.0041
     28 C         141.7286  141.9582  163.4546 C.3     1  UNL1        0.0101
     29 C         142.9004  142.5075  164.2130 C.3     1  UNL1        0.0007
     30 C         142.8775  142.5767  162.7147 C.3     1  UNL1        0.0013
     31 C         142.8546  142.6459  161.2165 C.3     1  UNL1        0.0106
     32 C         142.8317  142.7150  159.7182 C.2     1  UNL1        0.3160
     33 O         142.8165  144.1806  159.3994 O.2     1  UNL1       -0.2501
     34 C         144.9863  142.3956  158.3020 C.3     1  UNL1        0.2556
     35 O         143.9957  141.8678  159.2971 O.3     1  UNL1       -0.4444
     36 C         138.3506  139.8951  170.1690 C.1     1  UNL1        0.1030
     37 N         137.2017  139.2766  170.9089 N.1     1  UNL1       -0.1907
@<TRIPOS>BOND
     1    34    35    1
     2    35    32    1
     3    32    33    2
     4     1    32    1
     5     1     2    1
     6     2     3    1
     7     3     4    1
     8     4     5    1
     9     4     6    1
    10     4     7    1
    11     8     7    1
    12     8     9    1
    13     9    10    1
    14    10    11    2
    15    10    12    1
    16    12    13    2
    17    13    14    1
    18    14    15    1
    19    14    16    1
    20    16    17    2
    21    17    36    1
    22    36    37    3
    23    17    18    1
    24    18    19    2
    25    18    20    1
    26    20    21    1
    27    20    22    1
    28    20    23    1
    29    23    24    1
    30    24    25    1
    31    25    26    1
    32    26    27    1
    33    26    28    1
    34    28    29    1
    35    28    30    1
    36    30    31    1
    37     8     1    1
    38    28     9    1
    39    31     1    1
    40    26    13    1
    41    23    14    1
@<TRIPOS>MOLECULE
*****
 37 41 0 0 0
SMALL
GASTEIGER

@<TRIPOS>ATOM
      1 C         140.7753  142.1053  160.4624 C.3     1  UNL1        0.0900
      2 C         140.7199  142.1540  158.9642 C.3     1  UNL1        0.0106
      3 C         141.3097  141.0370  158.1552 C.3     1  UNL1        0.0005
      4 C         141.9549  139.8714  158.8444 C.3     1  UNL1        0.0000
      5 C         142.6667  138.5651  159.0363 C.3     1  UNL1        0.0000
      6 C         142.1466  139.4664  157.4128 C.3     1  UNL1        0.0000
      7 C         142.0103  139.8227  160.3425 C.3     1  UNL1        0.0010
      8 C         141.4206  140.9396  161.1515 C.3     1  UNL1        0.0173
      9 C         141.4760  140.8910  162.6497 C.3     1  UNL1        0.0627
     10 C         142.1212  139.7253  163.3389 C.2     1  UNL1        0.1721
     11 O         142.7110  138.6083  162.5298 O.2     1  UNL1       -0.2914
     12 C         142.1767  139.6766  164.8370 C.2     1  UNL1        0.0292
     13 C         141.5869  140.7936  165.6461 C.2     1  UNL1       -0.0388
     14 C         141.6423  140.7449  167.1443 C.3     1  UNL1        0.0349
     15 C         142.2321  139.6279  166.3353 C.3     1  UNL1        0.0085
     16 C         142.2875  139.5792  167.8334 C.2     1  UNL1       -0.0098
     17 C         142.3430  139.5305  169.3316 C.2     1  UNL1        0.0990
     18 C         141.7532  140.6475  170.1407 C.2     1  UNL1        0.1815
     19 O         141.8086  140.5988  171.6388 O.2     1  UNL1       -0.2907
     20 C         141.1080  141.8131  169.4515 C.3     1  UNL1        0.0568
     21 C         140.3962  143.1194  169.2595 C.3     1  UNL1        0.0077
     22 C         140.9162  142.2181  170.8830 C.3     1  UNL1        0.0077
     23 C         141.0525  141.8618  167.9533 C.3     1  UNL1        0.0141
     24 C         140.4073  143.0275  167.2641 C.3     1  UNL1        0.0014
     25 C         140.3519  143.0762  165.7660 C.3     1  UNL1        0.0038
     26 C         140.9416  141.9592  164.9570 C.3     1  UNL1        0.0159
     27 C         141.5314  140.8422  164.1479 C.3     1  UNL1        0.0041
     28 C         140.8862  142.0079  163.4588 C.3     1  UNL1        0.0101
     29 C         140.2964  143.1249  164.2678 C.3     1  UNL1        0.0007
     30 C         140.2410  143.1736  162.7696 C.3     1  UNL1        0.0013
     31 C         140.1855  143.2223  161.2715 C.3     1  UNL1        0.0106
     32 C         140.1301  143.2709  159.7732 C.2     1  UNL1        0.3160
     33 O         138.6667  143.2328  159.4464 O.2     1  UNL1       -0.2501
     34 C         140.3688  145.5362  158.5235 C.3     1  UNL1        0.2556
     35 O         140.9484  144.4748  159.4109 O.3     1  UNL1       -0.4444
     36 C         142.9882  138.3648  170.0207 C.1     1  UNL1        0.1030
     37 N         143.6335  137.1992  170.7099 N.1     1  UNL1       -0.1907
@<TRIPOS>BOND
     1    34    35    1
     2    35    32    1
     3    32    33    2
     4     1    32    1
     5     1     2    1
     6     2     3    1
     7     3     4    1
     8     4     5    1
     9     4     6    1
    10     4     7    1
    11     8     7    1
    12     8     9    1
    13     9    10    1
    14    10    11    2
    15    10    12    1
    16    12    13    2
    17    13    14    1
    18    14    15    1
    19    14    16    1
    20    16    17    2
    21    17    36    1
    22    36    37    3
    23    17    18    1
    24    18    19    2
    25    18    20    1
    26    20    21    1
    27    20    22    1
    28    20    23    1
    29    23    24    1
    30    24    25    1
    31    25    26    1
    32    26    27    1
    33    26    28    1
    34    28    29    1
    35    28    30    1
    36    30    31    1
    37     8     1    1
    38    28     9    1
    39    31     1    1
    40    26    13    1
    41    23    14    1
@<TRIPOS>MOLECULE
*****
 37 41 0 0 0
SMALL
GASTEIGER

@<TRIPOS>ATOM
      1 C         142.0707  140.6569  160.1237 C.3     1  UNL1        0.0900
      2 C         142.0628  140.6735  158.6239 C.3     1  UNL1        0.0106
      3 C         141.4428  141.8254  157.8899 C.3     1  UNL1        0.0005
      4 C         140.8306  142.9606  158.6557 C.3     1  UNL1        0.0000
      5 C         140.1314  144.2581  158.9342 C.3     1  UNL1        0.0000
      6 C         140.5799  143.4278  157.2526 C.3     1  UNL1        0.0000
      7 C         140.8385  142.9440  160.1556 C.3     1  UNL1        0.0010
      8 C         141.4585  141.7921  160.8896 C.3     1  UNL1        0.0173
      9 C         141.4664  141.7755  162.3895 C.3     1  UNL1        0.0627
     10 C         140.8543  142.9107  163.1554 C.2     1  UNL1        0.1721
     11 O         140.2342  144.0626  162.4213 O.2     1  UNL1       -0.2914
     12 C         140.8622  142.8941  164.6552 C.2     1  UNL1        0.0292
     13 C         141.4822  141.7422  165.3893 C.2     1  UNL1       -0.0388
     14 C         141.4901  141.7256  166.8892 C.3     1  UNL1        0.0349
     15 C         140.8701  142.8774  166.1552 C.3     1  UNL1        0.0085
     16 C         140.8780  142.8608  167.6550 C.2     1  UNL1       -0.0098
     17 C         140.8858  142.8442  169.1549 C.2     1  UNL1        0.0990
     18 C         141.5059  141.6923  169.8890 C.2     1  UNL1        0.1815
     19 O         141.5138  141.6757  171.3888 O.2     1  UNL1       -0.2907
     20 C         142.1180  140.5571  169.1231 C.3     1  UNL1        0.0568
     21 C         142.8172  139.2596  168.8445 C.3     1  UNL1        0.0077
     22 C         142.3688  140.0899  170.5262 C.3     1  UNL1        0.0077
     23 C         142.1101  140.5737  167.6232 C.3     1  UNL1        0.0141
     24 C         142.7223  139.4385  166.8573 C.3     1  UNL1        0.0014
     25 C         142.7144  139.4551  165.3574 C.3     1  UNL1        0.0038
     26 C         142.0944  140.6070  164.6235 C.3     1  UNL1        0.0159
     27 C         141.4743  141.7589  163.8894 C.3     1  UNL1        0.0041
     28 C         142.0865  140.6236  163.1235 C.3     1  UNL1        0.0101
     29 C         142.7065  139.4718  163.8576 C.3     1  UNL1        0.0007
     30 C         142.6986  139.4884  162.3576 C.3     1  UNL1        0.0013
     31 C         142.6907  139.5050  160.8578 C.3     1  UNL1        0.0106
     32 C         142.6828  139.5217  159.3579 C.2     1  UNL1        0.3160
     33 O         144.1425  139.5501  159.0136 O.2     1  UNL1       -0.2501
     34 C         142.3523  137.3825  157.9209 C.3     1  UNL1        0.2556
     35 O         141.8352  138.3581  158.9363 O.3     1  UNL1       -0.4444
     36 C         140.2737  143.9794  169.9208 C.1     1  UNL1        0.1030
     37 N         139.6615  145.1146  170.6866 N.1     1  UNL1       -0.1907
@<TRIPOS>BOND
     1    34    35    1
     2    35    32    1
     3    32    33    2
     4     1    32    1
     5     1     2    1
     6     2     3    1
     7     3     4    1
     8     4     5    1
     9     4     6    1
    10     4     7    1
    11     8     7    1
    12     8     9    1
    13     9    10    1
    14    10    11    2
    15    10    12    1
    16    12    13    2
    17    13    14    1
    18    14    15    1
    19    14    16    1
    20    16    17    2
    21    17    36    1
    22    36    37    3
    23    17    18    1
    24    18    19    2
    25    18    20    1
    26    20    21    1
    27    20    22    1
    28    20    23    1
    29    23    24    1
    30    24    25    1
    31    25    26    1
    32    26    27    1
    33    26    28    1
    34    28    29    1
    35    28    30    1
    36    30    31    1
    37     8     1    1
    38    28     9    1
    39    31     1    1
    40    26    13    1
    41    23    14    1
@<TRIPOS>MOLECULE
*****
 37 41 0 0 0
SMALL
GASTEIGER

@<TRIPOS>ATOM
      1 C         139.4935  143.6108  158.1931 C.3     1  UNL1        0.0900
      2 C         139.3720  143.9784  156.7439 C.3     1  UNL1        0.0106
      3 C         138.4295  143.2226  155.8549 C.3     1  UNL1        0.0005
      4 C         137.6084  142.0992  156.4150 C.3     1  UNL1        0.0000
      5 C         136.6267  140.9669  156.4796 C.3     1  UNL1        0.0000
      6 C         137.1461  142.0736  154.9883 C.3     1  UNL1        0.0000
      7 C         137.7298  141.7316  157.8641 C.3     1  UNL1        0.0010
      8 C         138.6724  142.4873  158.7532 C.3     1  UNL1        0.0173
      9 C         138.7938  142.1197  160.2024 C.3     1  UNL1        0.0627
     10 C         137.9727  140.9963  160.7625 C.2     1  UNL1        0.1721
     11 O         137.0302  140.2405  159.8734 O.2     1  UNL1       -0.2914
     12 C         138.0942  140.6286  162.2116 C.2     1  UNL1        0.0292
     13 C         139.0367  141.3844  163.1008 C.2     1  UNL1       -0.0388
     14 C         139.1582  141.0168  164.5499 C.3     1  UNL1        0.0349
     15 C         138.2156  140.2610  163.6609 C.3     1  UNL1        0.0085
     16 C         138.3371  139.8934  165.1100 C.2     1  UNL1       -0.0098
     17 C         138.4585  139.5257  166.5591 C.2     1  UNL1        0.0990
     18 C         139.4010  140.2815  167.4482 C.2     1  UNL1        0.1815
     19 O         139.5225  139.9139  168.8974 O.2     1  UNL1       -0.2907
     20 C         140.2221  141.4049  166.8881 C.3     1  UNL1        0.0568
     21 C         141.2038  142.5372  166.8235 C.3     1  UNL1        0.0077
     22 C         140.6845  141.4305  168.3149 C.3     1  UNL1        0.0077
     23 C         140.1007  141.7725  165.4389 C.3     1  UNL1        0.0141
     24 C         140.9218  142.8960  164.8788 C.3     1  UNL1        0.0014
     25 C         140.8004  143.2636  163.4297 C.3     1  UNL1        0.0038
     26 C         139.8578  142.5078  162.5406 C.3     1  UNL1        0.0159
     27 C         138.9153  141.7521  161.6515 C.3     1  UNL1        0.0041
     28 C         139.7364  142.8755  161.0914 C.3     1  UNL1        0.0101
     29 C         140.6789  143.6313  161.9805 C.3     1  UNL1        0.0007
     30 C         140.5575  143.9989  160.5313 C.3     1  UNL1        0.0013
     31 C         140.4360  144.3665  159.0822 C.3     1  UNL1        0.0106
     32 C         140.3146  144.7342  157.6329 C.2     1  UNL1        0.3160
     33 O         139.8299  146.1487  157.7511 O.2     1  UNL1       -0.2501
     34 C         142.2574  145.4796  156.0773 C.3     1  UNL1        0.2556
     35 O         141.6204  144.4429  156.9546 O.3     1  UNL1       -0.4444
     36 C         137.6374  138.4023  167.1193 C.1     1  UNL1        0.1030
     37 N         136.8163  137.2789  167.6794 N.1     1  UNL1       -0.1907
@<TRIPOS>BOND
     1    34    35    1
     2    35    32    1
     3    32    33    2
     4     1    32    1
     5     1     2    1
     6     2     3    1
     7     3     4    1
     8     4     5    1
     9     4     6    1
    10     4     7    1
    11     8     7    1
    12     8     9    1
    13     9    10    1
    14    10    11    2
    15    10    12    1
    16    12    13    2
    17    13    14    1
    18    14    15    1
    19    14    16    1
    20    16    17    2
    21    17    36    1
    22    36    37    3
    23    17    18    1
    24    18    19    2
    25    18    20    1
    26    20    21    1
    27    20    22    1
    28    20    23    1
    29    23    24    1
    30    24    25    1
    31    25    26    1
    32    26    27    1
    33    26    28    1
    34    28    29    1
    35    28    30    1
    36    30    31    1
    37     8     1    1
    38    28     9    1
    39    31     1    1
    40    26    13    1
    41    23    14    1
@<TRIPOS>MOLECULE
*****
 37 41 0 0 0
SMALL
GASTEIGER

@<TRIPOS>ATOM
      1 C         141.8954  140.3092  159.9812 C.3     1  UNL1        0.0900
      2 C         142.2592  140.2600  158.5269 C.3     1  UNL1        0.0106
      3 C         143.4334  141.0440  158.0205 C.3     1  UNL1        0.0005
      4 C         144.2438  141.8774  158.9685 C.3     1  UNL1        0.0000
      5 C         145.3091  142.8055  159.4721 C.3     1  UNL1        0.0000
      6 C         144.9775  142.1504  157.6890 C.3     1  UNL1        0.0000
      7 C         143.8801  141.9266  160.4229 C.3     1  UNL1        0.0010
      8 C         142.7059  141.1426  160.9292 C.3     1  UNL1        0.0173
      9 C         142.3421  141.1918  162.3837 C.3     1  UNL1        0.0627
     10 C         143.1525  142.0251  163.3317 C.2     1  UNL1        0.1721
     11 O         144.3268  142.8092  162.8252 O.2     1  UNL1       -0.2914
     12 C         142.7888  142.0744  164.7860 C.2     1  UNL1        0.0292
     13 C         141.6145  141.2903  165.2925 C.2     1  UNL1       -0.0388
     14 C         141.2508  141.3396  166.7468 C.3     1  UNL1        0.0349
     15 C         142.4250  142.1236  166.2405 C.3     1  UNL1        0.0085
     16 C         142.0612  142.1729  167.6948 C.2     1  UNL1       -0.0098
     17 C         141.6975  142.2222  169.1492 C.2     1  UNL1        0.0990
     18 C         140.5232  141.4381  169.6556 C.2     1  UNL1        0.1815
     19 O         140.1595  141.4874  171.1100 O.2     1  UNL1       -0.2907
     20 C         139.7128  140.6048  168.7076 C.3     1  UNL1        0.0568
     21 C         138.6475  139.6766  168.2039 C.3     1  UNL1        0.0077
     22 C         138.9790  140.3317  169.9871 C.3     1  UNL1        0.0077
     23 C         140.0766  140.5555  167.2532 C.3     1  UNL1        0.0141
     24 C         139.2661  139.7222  166.3052 C.3     1  UNL1        0.0014
     25 C         139.6298  139.6729  164.8508 C.3     1  UNL1        0.0038
     26 C         140.8041  140.4570  164.3444 C.3     1  UNL1        0.0159
     27 C         141.9783  141.2411  163.8380 C.3     1  UNL1        0.0041
     28 C         141.1679  140.4077  162.8900 C.3     1  UNL1        0.0101
     29 C         139.9936  139.6237  163.3964 C.3     1  UNL1        0.0007
     30 C         140.3574  139.5744  161.9420 C.3     1  UNL1        0.0013
     31 C         140.7211  139.5252  160.4876 C.3     1  UNL1        0.0106
     32 C         141.0849  139.4759  159.0332 C.2     1  UNL1        0.3160
     33 O         141.4951  138.0638  158.7371 O.2     1  UNL1       -0.2501
     34 C         139.2707  139.3886  157.1755 C.3     1  UNL1        0.2556
     35 O         139.8642  140.0547  158.3813 O.3     1  UNL1       -0.4444
     36 C         142.5079  143.0555  170.0972 C.1     1  UNL1        0.1030
     37 N         143.3184  143.8888  171.0452 N.1     1  UNL1       -0.1907
@<TRIPOS>BOND
     1    34    35    1
     2    35    32    1
     3    32    33    2
     4     1    32    1
     5     1     2    1
     6     2     3    1
     7     3     4    1
     8     4     5    1
     9     4     6    1
    10     4     7    1
    11     8     7    1
    12     8     9    1
    13     9    10    1
    14    10    11    2
    15    10    12    1
    16    12    13    2
    17    13    14    1
    18    14    15    1
    19    14    16    1
    20    16    17    2
    21    17    36    1
    22    36    37    3
    23    17    18    1
    24    18    19    2
    25    18    20    1
    26    20    21    1
    27    20    22    1
    28    20    23    1
    29    23    24    1
    30    24    25    1
    31    25    26    1
    32    26    27    1
    33    26    28    1
    34    28    29    1
    35    28    30    1
    36    30    31    1
    37     8     1    1
    38    28     9    1
    39    31     1    1
    40    26    13    1
    41    23    14    1
@<TRIPOS>MOLECULE
*****
 37 41 0 0 0
SMALL
GASTEIGER

@<TRIPOS>ATOM
      1 C         139.2331  142.8641  158.1081 C.3     1  UNL1        0.0900
      2 C         139.2419  143.3398  156.6856 C.3     1  UNL1        0.0106
      3 C         140.1976  144.4147  156.2601 C.3     1  UNL1        0.0005
      4 C         141.1445  145.0140  157.2573 C.3     1  UNL1        0.0000
      5 C         142.2248  145.8834  157.8292 C.3     1  UNL1        0.0000
      6 C         141.5284  145.7917  156.0334 C.3     1  UNL1        0.0000
      7 C         141.1357  144.5384  158.6798 C.3     1  UNL1        0.0010
      8 C         140.1800  143.4634  159.1052 C.3     1  UNL1        0.0173
      9 C         140.1712  142.9876  160.5278 C.3     1  UNL1        0.0627
     10 C         141.1181  143.5869  161.5249 C.2     1  UNL1        0.1721
     11 O         142.0738  144.6620  161.0994 O.2     1  UNL1       -0.2914
     12 C         141.1093  143.1112  162.9474 C.2     1  UNL1        0.0292
     13 C         140.1536  142.0362  163.3729 C.2     1  UNL1       -0.0388
     14 C         140.1448  141.5605  164.7954 C.3     1  UNL1        0.0349
     15 C         141.1005  142.6355  164.3700 C.3     1  UNL1        0.0085
     16 C         141.0917  142.1598  165.7925 C.2     1  UNL1       -0.0098
     17 C         141.0829  141.6841  167.2150 C.2     1  UNL1        0.0990
     18 C         140.1272  140.6091  167.6405 C.2     1  UNL1        0.1815
     19 O         140.1184  140.1334  169.0630 O.2     1  UNL1       -0.2907
     20 C         139.1803  140.0098  166.6434 C.3     1  UNL1        0.0568
     21 C         138.1001  139.1405  166.0713 C.3     1  UNL1        0.0077
     22 C         138.7963  139.2322  167.8672 C.3     1  UNL1        0.0077
     23 C         139.1891  140.4855  165.2208 C.3     1  UNL1        0.0141
     24 C         138.2422  139.8862  164.2237 C.3     1  UNL1        0.0014
     25 C         138.2510  140.3619  162.8012 C.3     1  UNL1        0.0038
     26 C         139.2067  141.4369  162.3758 C.3     1  UNL1        0.0159
     27 C         140.1624  142.5119  161.9503 C.3     1  UNL1        0.0041
     28 C         139.2155  141.9126  160.9532 C.3     1  UNL1        0.0101
     29 C         138.2598  140.8376  161.3786 C.3     1  UNL1        0.0007
     30 C         138.2686  141.3133  159.9561 C.3     1  UNL1        0.0013
     31 C         138.2774  141.7890  158.5335 C.3     1  UNL1        0.0106
     32 C         138.2862  142.2648  157.1110 C.2     1  UNL1        0.3160
     33 O         136.9677  142.9256  156.8376 O.2     1  UNL1       -0.2501
     34 C         137.7141  140.4093  155.3847 C.3     1  UNL1        0.2556
     35 O         138.6579  141.0045  156.3872 O.3     1  UNL1       -0.4444
     36 C         142.0298  142.2834  168.2121 C.1     1  UNL1        0.1030
     37 N         142.9767  142.8827  169.2092 N.1     1  UNL1       -0.1907
@<TRIPOS>BOND
     1    34    35    1
     2    35    32    1
     3    32    33    2
     4     1    32    1
     5     1     2    1
     6     2     3    1
     7     3     4    1
     8     4     5    1
     9     4     6    1
    10     4     7    1
    11     8     7    1
    12     8     9    1
    13     9    10    1
    14    10    11    2
    15    10    12    1
    16    12    13    2
    17    13    14    1
    18    14    15    1
    19    14    16    1
    20    16    17    2
    21    17    36    1
    22    36    37    3
    23    17    18    1
    24    18    19    2
    25    18    20    1
    26    20    21    1
    27    20    22    1
    28    20    23    1
    29    23    24    1
    30    24    25    1
    31    25    26    1
    32    26    27    1
    33    26    28    1
    34    28    29    1
    35    28    30    1
    36    30    31    1
    37     8     1    1
    38    28     9    1
    39    31     1    1
    40    26    13    1
    41    23    14    1
@<TRIPOS>MOLECULE
*****
 37 41 0 0 0
SMALL
GASTEIGER

@<TRIPOS>ATOM
      1 C         139.9597  141.2950  164.3698 C.3     1  UNL1        0.0900
      2 C         139.2775  141.4274  165.6991 C.3     1  UNL1        0.0106
      3 C         138.6619  140.2239  166.3492 C.3     1  UNL1        0.0005
      4 C         138.7286  138.8881  165.6701 C.3     1  UNL1        0.0000
      5 C         138.5350  137.4214  165.4229 C.3     1  UNL1        0.0000
      6 C         137.9791  138.5111  166.9135 C.3     1  UNL1        0.0000
      7 C         139.4109  138.7558  164.3409 C.3     1  UNL1        0.0010
      8 C         140.0265  139.9592  163.6907 C.3     1  UNL1        0.0173
      9 C         140.7088  139.8269  162.3614 C.3     1  UNL1        0.0627
     10 C         140.7755  138.4911  161.6823 C.2     1  UNL1        0.1721
     11 O         140.1599  137.2876  162.3325 O.2     1  UNL1       -0.2914
     12 C         141.4578  138.3588  160.3531 C.2     1  UNL1        0.0292
     13 C         142.0734  139.5623  159.7028 C.2     1  UNL1       -0.0388
     14 C         142.7557  139.4300  158.3736 C.3     1  UNL1        0.0349
     15 C         142.1401  138.2265  159.0237 C.3     1  UNL1        0.0085
     16 C         142.8224  138.0942  157.6945 C.2     1  UNL1       -0.0098
     17 C         143.5046  137.9618  156.3652 C.2     1  UNL1        0.0990
     18 C         144.1202  139.1653  155.7150 C.2     1  UNL1        0.1815
     19 O         144.8025  139.0330  154.3858 O.2     1  UNL1       -0.2907
     20 C         144.0535  140.5011  156.3941 C.3     1  UNL1        0.0568
     21 C         144.2471  141.9679  156.6414 C.3     1  UNL1        0.0077
     22 C         144.8030  140.8782  155.1507 C.3     1  UNL1        0.0077
     23 C         143.3712  140.6334  157.7235 C.3     1  UNL1        0.0141
     24 C         143.3045  141.9692  158.4026 C.3     1  UNL1        0.0014
     25 C         142.6222  142.1016  159.7318 C.3     1  UNL1        0.0038
     26 C         142.0067  140.8981  160.3820 C.3     1  UNL1        0.0159
     27 C         141.3911  139.6946  161.0322 C.3     1  UNL1        0.0041
     28 C         141.3243  141.0304  161.7113 C.3     1  UNL1        0.0101
     29 C         141.9399  142.2339  161.0611 C.3     1  UNL1        0.0007
     30 C         141.2576  142.3662  162.3904 C.3     1  UNL1        0.0013
     31 C         140.5753  142.4985  163.7196 C.3     1  UNL1        0.0106
     32 C         139.8930  142.6308  165.0490 C.2     1  UNL1        0.3160
     33 O         140.9753  143.0423  166.0026 O.2     1  UNL1       -0.2501
     34 C         138.7026  144.9110  165.4148 C.3     1  UNL1        0.2556
     35 O         138.7440  143.5552  164.7744 O.3     1  UNL1       -0.4444
     36 C         143.5714  136.6260  155.6861 C.1     1  UNL1        0.1030
     37 N         143.6381  135.2902  155.0070 N.1     1  UNL1       -0.1907
@<TRIPOS>BOND
     1    34    35    1
     2    35    32    1
     3    32    33    2
     4     1    32    1
     5     1     2    1
     6     2     3    1
     7     3     4    1
     8     4     5    1
     9     4     6    1
    10     4     7    1
    11     8     7    1
    12     8     9    1
    13     9    10    1
    14    10    11    2
    15    10    12    1
    16    12    13    2
    17    13    14    1
    18    14    15    1
    19    14    16    1
    20    16    17    2
    21    17    36    1
    22    36    37    3
    23    17    18    1
    24    18    19    2
    25    18    20    1
    26    20    21    1
    27    20    22    1
    28    20    23    1
    29    23    24    1
    30    24    25    1
    31    25    26    1
    32    26    27    1
    33    26    28    1
    34    28    29    1
    35    28    30    1
    36    30    31    1
    37     8     1    1
    38    28     9    1
    39    31     1    1
    40    26    13    1
    41    23    14    1
@<TRIPOS>MOLECULE
*****
 37 41 0 0 0
SMALL
GASTEIGER

@<TRIPOS>ATOM
      1 C         141.0521  139.3506  158.3282 C.3     1  UNL1        0.0900
      2 C         141.3056  139.2629  156.8524 C.3     1  UNL1        0.0106
      3 C         142.5542  139.8553  156.2694 C.3     1  UNL1        0.0005
      4 C         143.5494  140.5353  157.1622 C.3     1  UNL1        0.0000
      5 C         144.7812  141.2741  157.5946 C.3     1  UNL1        0.0000
      6 C         144.2307  140.7042  155.8366 C.3     1  UNL1        0.0000
      7 C         143.2959  140.6230  158.6380 C.3     1  UNL1        0.0010
      8 C         142.0473  140.0306  159.2210 C.3     1  UNL1        0.0173
      9 C         141.7938  140.1183  160.6969 C.3     1  UNL1        0.0627
     10 C         142.7890  140.7984  161.5897 C.2     1  UNL1        0.1721
     11 O         144.0377  141.3908  161.0066 O.2     1  UNL1       -0.2914
     12 C         142.5355  140.8861  163.0655 C.2     1  UNL1        0.0292
     13 C         141.2868  140.2937  163.6486 C.2     1  UNL1       -0.0388
     14 C         141.0333  140.3814  165.1244 C.3     1  UNL1        0.0349
     15 C         142.2820  140.9737  164.5414 C.3     1  UNL1        0.0085
     16 C         142.0285  141.0614  166.0172 C.2     1  UNL1       -0.0098
     17 C         141.7751  141.1491  167.4930 C.2     1  UNL1        0.0990
     18 C         140.5264  140.5567  168.0760 C.2     1  UNL1        0.1815
     19 O         140.2729  140.6444  169.5518 O.2     1  UNL1       -0.2907
     20 C         139.5312  139.8766  167.1832 C.3     1  UNL1        0.0568
     21 C         138.2994  139.1380  166.7508 C.3     1  UNL1        0.0077
     22 C         138.8499  139.7078  168.5089 C.3     1  UNL1        0.0077
     23 C         139.7847  139.7890  165.7073 C.3     1  UNL1        0.0141
     24 C         138.7895  139.1089  164.8145 C.3     1  UNL1        0.0014
     25 C         139.0430  139.0212  163.3387 C.3     1  UNL1        0.0038
     26 C         140.2916  139.6136  162.7558 C.3     1  UNL1        0.0159
     27 C         141.5403  140.2060  162.1727 C.3     1  UNL1        0.0041
     28 C         140.5451  139.5259  161.2799 C.3     1  UNL1        0.0101
     29 C         139.2964  138.9335  161.8629 C.3     1  UNL1        0.0007
     30 C         139.5499  138.8459  160.3871 C.3     1  UNL1        0.0013
     31 C         139.8034  138.7582  158.9113 C.3     1  UNL1        0.0106
     32 C         140.0569  138.6705  157.4354 C.2     1  UNL1        0.3160
     33 O         138.8044  139.3870  157.0257 O.2     1  UNL1       -0.2501
     34 C         139.5784  136.7465  155.7563 C.3     1  UNL1        0.2556
     35 O         140.3143  137.2739  156.9523 O.3     1  UNL1       -0.4444
     36 C         142.7702  141.8292  168.3858 C.1     1  UNL1        0.1030
     37 N         143.7654  142.5093  169.2786 N.1     1  UNL1       -0.1907
@<TRIPOS>BOND
     1    34    35    1
     2    35    32    1
     3    32    33    2
     4     1    32    1
     5     1     2    1
     6     2     3    1
     7     3     4    1
     8     4     5    1
     9     4     6    1
    10     4     7    1
    11     8     7    1
    12     8     9    1
    13     9    10    1
    14    10    11    2
    15    10    12    1
    16    12    13    2
    17    13    14    1
    18    14    15    1
    19    14    16    1
    20    16    17    2
    21    17    36    1
    22    36    37    3
    23    17    18    1
    24    18    19    2
    25    18    20    1
    26    20    21    1
    27    20    22    1
    28    20    23    1
    29    23    24    1
    30    24    25    1
    31    25    26    1
    32    26    27    1
    33    26    28    1
    34    28    29    1
    35    28    30    1
    36    30    31    1
    37     8     1    1
    38    28     9    1
    39    31     1    1
    40    26    13    1
    41    23    14    1
@<TRIPOS>MOLECULE
*****
 37 41 0 0 0
SMALL
GASTEIGER

@<TRIPOS>ATOM
      1 C         141.4386  142.0079  163.6098 C.3     1  UNL1        0.0900
      2 C         141.4071  142.8920  164.8212 C.3     1  UNL1        0.0106
      3 C         140.2192  143.7714  165.0771 C.3     1  UNL1        0.0005
      4 C         139.0628  143.7667  164.1218 C.3     1  UNL1        0.0000
      5 C         137.7353  144.1105  163.5139 C.3     1  UNL1        0.0000
      6 C         138.5703  144.7702  165.1220 C.3     1  UNL1        0.0000
      7 C         139.0943  142.8826  162.9105 C.3     1  UNL1        0.0010
      8 C         140.2822  142.0032  162.6545 C.3     1  UNL1        0.0173
      9 C         140.3137  141.1190  161.4431 C.3     1  UNL1        0.0627
     10 C         139.1573  141.1143  160.4878 C.2     1  UNL1        0.1721
     11 O         137.9693  141.9937  160.7438 O.2     1  UNL1       -0.2914
     12 C         139.1887  140.2302  159.2765 C.2     1  UNL1        0.0292
     13 C         140.3767  139.3508  159.0204 C.2     1  UNL1       -0.0388
     14 C         140.4082  138.4667  157.8091 C.3     1  UNL1        0.0349
     15 C         139.2203  139.3460  158.0651 C.3     1  UNL1        0.0085
     16 C         139.2517  138.4619  156.8538 C.2     1  UNL1       -0.0098
     17 C         139.2832  137.5778  155.6425 C.2     1  UNL1        0.0990
     18 C         140.4711  136.6984  155.3865 C.2     1  UNL1        0.1815
     19 O         140.5026  135.8143  154.1751 O.2     1  UNL1       -0.2907
     20 C         141.6276  136.7031  156.3418 C.3     1  UNL1        0.0568
     21 C         142.9550  136.3594  156.9498 C.3     1  UNL1        0.0077
     22 C         142.1201  135.6996  155.3416 C.3     1  UNL1        0.0077
     23 C         141.5960  137.5873  157.5532 C.3     1  UNL1        0.0141
     24 C         142.7525  137.5920  158.5085 C.3     1  UNL1        0.0014
     25 C         142.7210  138.4761  159.7198 C.3     1  UNL1        0.0038
     26 C         141.5331  139.3555  159.9758 C.3     1  UNL1        0.0159
     27 C         140.3452  140.2349  160.2318 C.3     1  UNL1        0.0041
     28 C         141.5016  140.2397  161.1872 C.3     1  UNL1        0.0101
     29 C         142.6895  139.3602  160.9311 C.3     1  UNL1        0.0007
     30 C         142.6580  140.2444  162.1425 C.3     1  UNL1        0.0013
     31 C         142.6265  141.1285  163.3538 C.3     1  UNL1        0.0106
     32 C         142.5950  142.0127  164.5652 C.2     1  UNL1        0.3160
     33 O         142.5670  141.1346  165.7809 O.2     1  UNL1       -0.2501
     34 C         144.5275  143.5050  165.4531 C.3     1  UNL1        0.2556
     35 O         143.7794  142.8956  164.3047 O.3     1  UNL1       -0.4444
     36 C         138.1268  137.5731  154.6871 C.1     1  UNL1        0.1030
     37 N         136.9704  137.5684  153.7318 N.1     1  UNL1       -0.1907
@<TRIPOS>BOND
     1    34    35    1
     2    35    32    1
     3    32    33    2
     4     1    32    1
     5     1     2    1
     6     2     3    1
     7     3     4    1
     8     4     5    1
     9     4     6    1
    10     4     7    1
    11     8     7    1
    12     8     9    1
    13     9    10    1
    14    10    11    2
    15    10    12    1
    16    12    13    2
    17    13    14    1
    18    14    15    1
    19    14    16    1
    20    16    17    2
    21    17    36    1
    22    36    37    3
    23    17    18    1
    24    18    19    2
    25    18    20    1
    26    20    21    1
    27    20    22    1
    28    20    23    1
    29    23    24    1
    30    24    25    1
    31    25    26    1
    32    26    27    1
    33    26    28    1
    34    28    29    1
    35    28    30    1
    36    30    31    1
    37     8     1    1
    38    28     9    1
    39    31     1    1
    40    26    13    1
    41    23    14    1
