@<TRIPOS>MOLECULE
*****
 32 36 0 0 0
SMALL
GASTEIGER

@<TRIPOS>ATOM
      1 C         141.8647  140.0403  169.1237 C.ar    1  UNL1        0.1344
      2 C         140.5774  140.4363  169.7841 C.ar    1  UNL1        0.0366
      3 C         139.2900  140.3709  169.0171 C.ar    1  UNL1        0.0028
      4 C         139.2899  139.9094  167.5899 C.ar    1  UNL1       -0.0044
      5 C         140.5771  139.5133  166.9295 C.ar    1  UNL1       -0.0225
      6 C         141.8646  139.5787  167.6964 C.ar    1  UNL1        0.0079
      7 C         143.1519  139.1826  167.0361 C.3     1  UNL1        0.0291
      8 C         143.1516  138.7212  165.6089 C.3     1  UNL1        0.0051
      9 C         141.8641  138.6557  164.8420 C.3     1  UNL1        0.0058
     10 C         140.5769  139.0518  165.5023 C.3     1  UNL1        0.0348
     11 C         139.2190  139.4139  166.0266 C.3     1  UNL1        0.0227
     12 C         138.2242  139.1987  164.9248 C.3     1  UNL1        0.0725
     13 N         138.9673  138.7036  163.7195 N.3     1  UNL1       -0.2724
     14 C         140.4213  138.6128  164.0765 C.3     1  UNL1        0.0761
     15 C         143.7442  141.4362  170.2502 C.3     1  UNL1        0.2525
     16 O         143.1522  140.1057  169.8906 O.3     1  UNL1       -0.4718
     17 C         138.3624  138.3596  162.3907 C.3     1  UNL1        0.0730
     18 C         137.7653  139.4385  161.5366 C.3     1  UNL1        0.0294
     19 C         138.1789  139.5738  160.1010 C.3     1  UNL1        0.0666
     20 S         138.4083  140.9340  159.5117 S.3     1  UNL1       -0.0756
     21 C         138.9706  142.0345  160.3618 C.ar    1  UNL1        0.1933
     22 N         138.2604  143.2961  160.7541 N.ar    1  UNL1       -0.1220
     23 N         139.1928  144.1079  161.6036 N.ar    1  UNL1       -0.1250
     24 C         140.4792  143.3480  161.7363 C.ar    1  UNL1        0.2029
     25 N         140.3419  142.0666  160.9688 N.ar    1  UNL1       -0.2860
     26 C         141.3916  141.0038  160.8324 C.3     1  UNL1        0.1341
     27 C         141.6903  143.7917  162.5021 C.ar    1  UNL1        0.1964
     28 O         142.8316  144.5980  161.9569 O.2     1  UNL1       -0.4283
     29 C         143.8194  144.8116  163.0654 C.ar    1  UNL1        0.2849
     30 N         143.2886  144.1372  164.2956 N.ar    1  UNL1       -0.2085
     31 C         141.9727  143.5069  163.9474 C.ar    1  UNL1        0.1001
     32 C         141.0936  142.7284  164.8808 C.3     1  UNL1        0.0556
@<TRIPOS>BOND
     1    15    16    1
     2    16     1    1
     3     1     2   ar
     4     2     3   ar
     5     3     4   ar
     6     4     5   ar
     7     5     6   ar
     8     6     7    1
     9     7     8    1
    10     8     9    1
    11     9    10    1
    12    10    11    1
    13    11    12    1
    14    12    13    1
    15    13    17    1
    16    17    18    1
    17    18    19    1
    18    19    20    1
    19    20    21    1
    20    21    22   ar
    21    22    23   ar
    22    23    24   ar
    23    24    27    1
    24    27    28   ar
    25    28    29   ar
    26    29    30   ar
    27    30    31   ar
    28    31    32    1
    29    24    25   ar
    30    25    26    1
    31    13    14    1
    32     6     1   ar
    33    14    10    1
    34    10     5    1
    35    25    21   ar
    36    31    27   ar
@<TRIPOS>MOLECULE
*****
 32 36 0 0 0
SMALL
GASTEIGER

@<TRIPOS>ATOM
      1 C         144.1930  142.0925  162.7351 C.ar    1  UNL1        0.1344
      2 C         144.2807  143.5634  163.0157 C.ar    1  UNL1        0.0366
      3 C         144.0197  144.0797  164.3996 C.ar    1  UNL1        0.0028
      4 C         143.6710  143.1252  165.5029 C.ar    1  UNL1       -0.0044
      5 C         143.5832  141.6543  165.2223 C.ar    1  UNL1       -0.0225
      6 C         143.8443  141.1379  163.8384 C.ar    1  UNL1        0.0079
      7 C         143.7565  139.6670  163.5578 C.3     1  UNL1        0.0291
      8 C         143.4078  138.7125  164.6611 C.3     1  UNL1        0.0051
      9 C         143.1468  139.2289  166.0450 C.3     1  UNL1        0.0058
     10 C         143.2345  140.6998  166.3256 C.3     1  UNL1        0.0348
     11 C         143.2850  142.1362  166.7547 C.3     1  UNL1        0.0227
     12 C         142.9589  142.1946  168.2177 C.3     1  UNL1        0.0725
     13 N         142.7069  140.7943  168.6927 N.3     1  UNL1       -0.2724
     14 C         142.8773  139.8704  167.5233 C.3     1  UNL1        0.0761
     15 C         144.4329  142.5170  160.1832 C.3     1  UNL1        0.2525
     16 O         144.4540  141.5761  161.3512 O.3     1  UNL1       -0.4718
     17 C         142.3476  140.3890  170.0915 C.3     1  UNL1        0.0730
     18 C         140.9108  140.3721  170.5218 C.3     1  UNL1        0.0294
     19 C         139.8457  140.8878  169.6000 C.3     1  UNL1        0.0666
     20 S         139.1728  139.9562  168.6359 S.3     1  UNL1       -0.0756
     21 C         139.2382  140.2268  167.1620 C.ar    1  UNL1        0.1933
     22 N         139.8097  141.4536  166.5153 N.ar    1  UNL1       -0.1220
     23 N         139.6683  141.3030  165.0296 N.ar    1  UNL1       -0.1250
     24 C         139.0095  139.9831  164.7580 C.ar    1  UNL1        0.2029
     25 N         138.7437  139.3180  166.0759 N.ar    1  UNL1       -0.2860
     26 C         138.0968  137.9791  166.2732 C.3     1  UNL1        0.1341
     27 C         138.6751  139.4262  163.4060 C.ar    1  UNL1        0.1964
     28 O         137.6443  139.9669  162.4601 O.2     1  UNL1       -0.4283
     29 C         137.6450  139.1056  161.2320 C.ar    1  UNL1        0.2849
     30 N         138.6763  138.0326  161.4190 N.ar    1  UNL1       -0.2085
     31 C         139.3130  138.2307  162.7626 C.ar    1  UNL1        0.1001
     32 C         140.3971  137.3823  163.3582 C.3     1  UNL1        0.0556
@<TRIPOS>BOND
     1    15    16    1
     2    16     1    1
     3     1     2   ar
     4     2     3   ar
     5     3     4   ar
     6     4     5   ar
     7     5     6   ar
     8     6     7    1
     9     7     8    1
    10     8     9    1
    11     9    10    1
    12    10    11    1
    13    11    12    1
    14    12    13    1
    15    13    17    1
    16    17    18    1
    17    18    19    1
    18    19    20    1
    19    20    21    1
    20    21    22   ar
    21    22    23   ar
    22    23    24   ar
    23    24    27    1
    24    27    28   ar
    25    28    29   ar
    26    29    30   ar
    27    30    31   ar
    28    31    32    1
    29    24    25   ar
    30    25    26    1
    31    13    14    1
    32     6     1   ar
    33    14    10    1
    34    10     5    1
    35    25    21   ar
    36    31    27   ar
@<TRIPOS>MOLECULE
*****
 32 36 0 0 0
SMALL
GASTEIGER

@<TRIPOS>ATOM
      1 C         141.0199  142.2066  169.5899 C.ar    1  UNL1        0.1344
      2 C         139.9339  141.6795  170.4802 C.ar    1  UNL1        0.0366
      3 C         138.9802  140.6420  169.9661 C.ar    1  UNL1        0.0028
      4 C         139.1128  140.1316  168.5619 C.ar    1  UNL1       -0.0044
      5 C         140.1988  140.6587  167.6716 C.ar    1  UNL1       -0.0225
      6 C         141.1525  141.6962  168.1856 C.ar    1  UNL1        0.0079
      7 C         142.2385  142.2233  167.2953 C.3     1  UNL1        0.0291
      8 C         142.3710  141.7129  165.8910 C.3     1  UNL1        0.0051
      9 C         141.4173  140.6753  165.3771 C.3     1  UNL1        0.0058
     10 C         140.3313  140.1483  166.2674 C.3     1  UNL1        0.0348
     11 C         139.2016  139.5306  167.0370 C.3     1  UNL1        0.0227
     12 C         138.5121  138.5469  166.1388 C.3     1  UNL1        0.0725
     13 N         139.2156  138.5565  164.8140 N.3     1  UNL1       -0.2724
     14 C         140.3399  139.5462  164.8935 C.3     1  UNL1        0.0761
     15 C         143.4124  142.8902  170.3375 C.3     1  UNL1        0.2525
     16 O         141.9736  143.2441  170.1038 O.3     1  UNL1       -0.4718
     17 C         138.8576  137.7228  163.6196 C.3     1  UNL1        0.0730
     18 C         139.7752  137.6783  162.4338 C.3     1  UNL1        0.0294
     19 C         139.3335  138.2551  161.1215 C.3     1  UNL1        0.0666
     20 S         138.0614  139.0458  161.0400 S.3     1  UNL1       -0.0756
     21 C         137.9965  140.4245  161.6272 C.ar    1  UNL1        0.1933
     22 N         136.9882  140.9111  162.6255 N.ar    1  UNL1       -0.1220
     23 N         137.2971  142.3460  162.9346 N.ar    1  UNL1       -0.1250
     24 C         138.4963  142.7463  162.1273 C.ar    1  UNL1        0.2029
     25 N         138.9285  141.5588  161.3193 N.ar    1  UNL1       -0.2860
     26 C         140.0891  141.5134  160.3701 C.3     1  UNL1        0.1341
     27 C         139.1487  144.0970  162.1279 C.ar    1  UNL1        0.1964
     28 O         139.2363  145.0343  160.9601 O.2     1  UNL1       -0.4283
     29 C         139.9698  146.2641  161.4069 C.ar    1  UNL1        0.2849
     30 N         140.3355  146.0868  162.8508 N.ar    1  UNL1       -0.2085
     31 C         139.8280  144.7475  163.2964 C.ar    1  UNL1        0.1001
     32 C         139.9742  144.1615  164.6694 C.3     1  UNL1        0.0556
@<TRIPOS>BOND
     1    15    16    1
     2    16     1    1
     3     1     2   ar
     4     2     3   ar
     5     3     4   ar
     6     4     5   ar
     7     5     6   ar
     8     6     7    1
     9     7     8    1
    10     8     9    1
    11     9    10    1
    12    10    11    1
    13    11    12    1
    14    12    13    1
    15    13    17    1
    16    17    18    1
    17    18    19    1
    18    19    20    1
    19    20    21    1
    20    21    22   ar
    21    22    23   ar
    22    23    24   ar
    23    24    27    1
    24    27    28   ar
    25    28    29   ar
    26    29    30   ar
    27    30    31   ar
    28    31    32    1
    29    24    25   ar
    30    25    26    1
    31    13    14    1
    32     6     1   ar
    33    14    10    1
    34    10     5    1
    35    25    21   ar
    36    31    27   ar
@<TRIPOS>MOLECULE
*****
 32 36 0 0 0
SMALL
GASTEIGER

@<TRIPOS>ATOM
      1 C         138.6622  139.0069  165.1237 C.ar    1  UNL1        0.1344
      2 C         139.0960  137.7059  164.5159 C.ar    1  UNL1        0.0366
      3 C         139.2999  137.6018  163.0335 C.ar    1  UNL1        0.0028
      4 C         139.0700  138.7985  162.1589 C.ar    1  UNL1       -0.0044
      5 C         138.6362  140.0995  162.7667 C.ar    1  UNL1       -0.0225
      6 C         138.4323  140.2037  164.2491 C.ar    1  UNL1        0.0079
      7 C         137.9985  141.5046  164.8569 C.3     1  UNL1        0.0291
      8 C         137.7686  142.7013  163.9822 C.3     1  UNL1        0.0051
      9 C         137.9725  142.5971  162.4998 C.3     1  UNL1        0.0058
     10 C         138.4063  141.2962  161.8920 C.3     1  UNL1        0.0348
     11 C         138.8362  140.0683  161.1453 C.3     1  UNL1        0.0227
     12 C         138.9117  140.4148  159.6879 C.3     1  UNL1        0.0725
     13 N         138.5285  141.8569  159.5338 N.3     1  UNL1       -0.2724
     14 C         138.2161  142.4016  160.8960 C.3     1  UNL1        0.0761
     15 C         137.4197  138.2655  167.2816 C.3     1  UNL1        0.2525
     16 O         138.4583  139.1111  166.6061 O.3     1  UNL1       -0.4718
     17 C         138.4682  142.6201  158.2439 C.3     1  UNL1        0.0730
     18 C         139.7206  143.2002  157.6565 C.3     1  UNL1        0.0294
     19 C         139.8572  144.6858  157.4995 C.3     1  UNL1        0.0666
     20 S         140.7670  145.4556  158.4104 S.3     1  UNL1       -0.0756
     21 C         140.7060  145.2348  159.8928 C.ar    1  UNL1        0.1933
     22 N         139.7949  145.9408  160.8527 N.ar    1  UNL1       -0.1220
     23 N         140.0713  145.4115  162.2287 N.ar    1  UNL1       -0.1250
     24 C         141.1532  144.3783  162.1193 C.ar    1  UNL1        0.2029
     25 N         141.5455  144.2691  160.6756 N.ar    1  UNL1       -0.2860
     26 C         142.5933  143.3547  160.1134 C.3     1  UNL1        0.1341
     27 C         141.7398  143.5923  163.2543 C.ar    1  UNL1        0.1964
     28 O         141.2516  142.2643  163.7521 O.2     1  UNL1       -0.4283
     29 C         142.1277  141.8475  164.8961 C.ar    1  UNL1        0.2849
     30 N         143.1573  142.9181  165.1053 N.ar    1  UNL1       -0.2085
     31 C         142.9176  143.9964  164.0906 C.ar    1  UNL1        0.1001
     32 C         143.7156  145.2575  163.9388 C.3     1  UNL1        0.0556
@<TRIPOS>BOND
     1    15    16    1
     2    16     1    1
     3     1     2   ar
     4     2     3   ar
     5     3     4   ar
     6     4     5   ar
     7     5     6   ar
     8     6     7    1
     9     7     8    1
    10     8     9    1
    11     9    10    1
    12    10    11    1
    13    11    12    1
    14    12    13    1
    15    13    17    1
    16    17    18    1
    17    18    19    1
    18    19    20    1
    19    20    21    1
    20    21    22   ar
    21    22    23   ar
    22    23    24   ar
    23    24    27    1
    24    27    28   ar
    25    28    29   ar
    26    29    30   ar
    27    30    31   ar
    28    31    32    1
    29    24    25   ar
    30    25    26    1
    31    13    14    1
    32     6     1   ar
    33    14    10    1
    34    10     5    1
    35    25    21   ar
    36    31    27   ar
@<TRIPOS>MOLECULE
*****
 32 36 0 0 0
SMALL
GASTEIGER

@<TRIPOS>ATOM
      1 C         142.1055  140.5169  168.0016 C.ar    1  UNL1        0.1344
      2 C         141.1062  141.2424  168.8531 C.ar    1  UNL1        0.0366
      3 C         140.3498  142.4098  168.2918 C.ar    1  UNL1        0.0028
      4 C         140.5926  142.8516  166.8791 C.ar    1  UNL1       -0.0044
      5 C         141.5919  142.1261  166.0276 C.ar    1  UNL1       -0.0225
      6 C         142.3484  140.9588  166.5888 C.ar    1  UNL1        0.0079
      7 C         143.3477  140.2333  165.7373 C.3     1  UNL1        0.0291
      8 C         143.5905  140.6751  164.3246 C.3     1  UNL1        0.0051
      9 C         142.8339  141.8425  163.7634 C.3     1  UNL1        0.0058
     10 C         141.8346  142.5680  164.6149 C.3     1  UNL1        0.0348
     11 C         140.8098  143.3866  165.3426 C.3     1  UNL1        0.0227
     12 C         140.3120  144.4462  164.4049 C.3     1  UNL1        0.0725
     13 N         141.0291  144.2825  163.0976 N.3     1  UNL1       -0.2724
     14 C         141.9702  143.1216  163.2274 C.3     1  UNL1        0.0761
     15 C         142.6000  138.8910  169.9667 C.3     1  UNL1        0.2525
     16 O         142.8621  139.3496  168.5628 O.3     1  UNL1       -0.4718
     17 C         140.8386  145.1306  161.8752 C.3     1  UNL1        0.0730
     18 C         141.2968  144.6313  160.5370 C.3     1  UNL1        0.0294
     19 C         140.3007  144.4122  159.4369 C.3     1  UNL1        0.0666
     20 S         139.4861  143.1531  159.4026 S.3     1  UNL1       -0.0756
     21 C         138.9054  142.6009  160.6706 C.ar    1  UNL1        0.1933
     22 N         137.7247  143.1527  161.4132 N.ar    1  UNL1       -0.1220
     23 N         137.4931  142.2927  162.6202 N.ar    1  UNL1       -0.1250
     24 C         138.5306  141.2094  162.6235 C.ar    1  UNL1        0.2029
     25 N         139.4034  141.3999  161.4186 N.ar    1  UNL1       -0.2860
     26 C         140.5696  140.5403  161.0299 C.3     1  UNL1        0.1341
     27 C         138.6707  140.1258  163.6513 C.ar    1  UNL1        0.1964
     28 O         138.9904  140.3240  165.1033 O.2     1  UNL1       -0.4283
     29 C         139.0329  138.9745  165.7569 C.ar    1  UNL1        0.2849
     30 N         138.7394  137.9424  164.7088 N.ar    1  UNL1       -0.2085
     31 C         138.5156  138.6540  163.4074 C.ar    1  UNL1        0.1001
     32 C         138.1932  138.0072  162.0930 C.3     1  UNL1        0.0556
@<TRIPOS>BOND
     1    15    16    1
     2    16     1    1
     3     1     2   ar
     4     2     3   ar
     5     3     4   ar
     6     4     5   ar
     7     5     6   ar
     8     6     7    1
     9     7     8    1
    10     8     9    1
    11     9    10    1
    12    10    11    1
    13    11    12    1
    14    12    13    1
    15    13    17    1
    16    17    18    1
    17    18    19    1
    18    19    20    1
    19    20    21    1
    20    21    22   ar
    21    22    23   ar
    22    23    24   ar
    23    24    27    1
    24    27    28   ar
    25    28    29   ar
    26    29    30   ar
    27    30    31   ar
    28    31    32    1
    29    24    25   ar
    30    25    26    1
    31    13    14    1
    32     6     1   ar
    33    14    10    1
    34    10     5    1
    35    25    21   ar
    36    31    27   ar
@<TRIPOS>MOLECULE
*****
 32 36 0 0 0
SMALL
GASTEIGER

@<TRIPOS>ATOM
      1 C         140.0566  139.8533  168.0538 C.ar    1  UNL1        0.1344
      2 C         141.3000  140.3852  168.7026 C.ar    1  UNL1        0.0366
      3 C         142.6019  140.3653  167.9578 C.ar    1  UNL1        0.0028
      4 C         142.6603  139.8134  166.5643 C.ar    1  UNL1       -0.0044
      5 C         141.4169  139.2814  165.9155 C.ar    1  UNL1       -0.0225
      6 C         140.1150  139.3013  166.6602 C.ar    1  UNL1        0.0079
      7 C         138.8716  138.7693  166.0114 C.3     1  UNL1        0.0291
      8 C         138.9301  138.2174  164.6179 C.3     1  UNL1        0.0051
      9 C         140.2321  138.1975  163.8731 C.3     1  UNL1        0.0058
     10 C         141.4755  138.7295  164.5219 C.3     1  UNL1        0.0348
     11 C         142.7941  139.2241  165.0381 C.3     1  UNL1        0.0227
     12 C         143.8209  139.0117  163.9654 C.3     1  UNL1        0.0725
     13 N         143.1368  138.3859  162.7863 N.3     1  UNL1       -0.2724
     14 C         141.6872  138.2115  163.1302 C.3     1  UNL1        0.0761
     15 C         138.7076  140.3684  170.2137 C.3     1  UNL1        0.2525
     16 O         138.7547  139.8732  168.7986 O.3     1  UNL1       -0.4718
     17 C         143.7879  138.0020  161.4907 C.3     1  UNL1        0.0730
     18 C         142.9454  137.5751  160.3255 C.3     1  UNL1        0.0294
     19 C         142.7439  138.5042  159.1652 C.3     1  UNL1        0.0666
     20 S         141.3558  138.8551  158.7177 S.3     1  UNL1       -0.0756
     21 C         140.3734  139.4244  159.6978 C.ar    1  UNL1        0.1933
     22 N         139.1820  138.7123  160.2666 N.ar    1  UNL1       -0.1220
     23 N         138.4821  139.6536  161.2016 N.ar    1  UNL1       -0.1250
     24 C         139.2410  140.9474  161.2107 C.ar    1  UNL1        0.2029
     25 N         140.4098  140.8058  160.2814 N.ar    1  UNL1       -0.2860
     26 C         141.4351  141.8604  159.9871 C.3     1  UNL1        0.1341
     27 C         138.8922  142.1685  162.0090 C.ar    1  UNL1        0.1964
     28 O         137.6870  143.0386  161.8082 O.2     1  UNL1       -0.4283
     29 C         137.7374  144.1417  162.8234 C.ar    1  UNL1        0.2849
     30 N         138.9737  143.9534  163.6516 N.ar    1  UNL1       -0.2085
     31 C         139.6875  142.7338  163.1483 C.ar    1  UNL1        0.1001
     32 C         140.9711  142.1774  163.6892 C.3     1  UNL1        0.0556
@<TRIPOS>BOND
     1    15    16    1
     2    16     1    1
     3     1     2   ar
     4     2     3   ar
     5     3     4   ar
     6     4     5   ar
     7     5     6   ar
     8     6     7    1
     9     7     8    1
    10     8     9    1
    11     9    10    1
    12    10    11    1
    13    11    12    1
    14    12    13    1
    15    13    17    1
    16    17    18    1
    17    18    19    1
    18    19    20    1
    19    20    21    1
    20    21    22   ar
    21    22    23   ar
    22    23    24   ar
    23    24    27    1
    24    27    28   ar
    25    28    29   ar
    26    29    30   ar
    27    30    31   ar
    28    31    32    1
    29    24    25   ar
    30    25    26    1
    31    13    14    1
    32     6     1   ar
    33    14    10    1
    34    10     5    1
    35    25    21   ar
    36    31    27   ar
@<TRIPOS>MOLECULE
*****
 32 36 0 0 0
SMALL
GASTEIGER

@<TRIPOS>ATOM
      1 C         141.2754  142.0740  166.9884 C.ar    1  UNL1        0.1344
      2 C         142.4906  141.2433  166.7000 C.ar    1  UNL1        0.0366
      3 C         143.1553  141.3275  165.3579 C.ar    1  UNL1        0.0028
      4 C         142.6048  142.2423  164.3044 C.ar    1  UNL1       -0.0044
      5 C         141.3895  143.0730  164.5928 C.ar    1  UNL1       -0.0225
      6 C         140.7248  142.9889  165.9349 C.ar    1  UNL1        0.0079
      7 C         139.5096  143.8196  166.2233 C.3     1  UNL1        0.0291
      8 C         138.9591  144.7344  165.1697 C.3     1  UNL1        0.0051
      9 C         139.6238  144.8185  163.8277 C.3     1  UNL1        0.0058
     10 C         140.8391  143.9878  163.5392 C.3     1  UNL1        0.0348
     11 C         142.0545  143.2220  163.1078 C.3     1  UNL1        0.0227
     12 C         142.3716  143.6134  161.6949 C.3     1  UNL1        0.0725
     13 N         141.3522  144.6212  161.2532 N.3     1  UNL1       -0.2724
     14 C         140.4050  144.8526  162.3930 C.3     1  UNL1        0.0761
     15 C         139.8735  140.7448  168.7256 C.3     1  UNL1        0.2525
     16 O         140.6107  141.9899  168.3305 O.3     1  UNL1       -0.4718
     17 C         141.2908  145.2816  159.9078 C.3     1  UNL1        0.0730
     18 C         140.1156  145.0410  159.0072 C.3     1  UNL1        0.0294
     19 C         139.9797  143.7335  158.2845 C.3     1  UNL1        0.0666
     20 S         138.8934  142.7734  158.6693 S.3     1  UNL1       -0.0756
     21 C         138.8136  142.2552  160.0746 C.ar    1  UNL1        0.1933
     22 N         137.8284  142.6883  161.1195 N.ar    1  UNL1       -0.1220
     23 N         138.1111  141.9136  162.3725 N.ar    1  UNL1       -0.1250
     24 C         139.2710  141.0017  162.1021 C.ar    1  UNL1        0.2029
     25 N         139.7052  141.2128  160.6819 N.ar    1  UNL1       -0.2860
     26 C         140.8329  140.5057  159.9904 C.3     1  UNL1        0.1341
     27 C         139.8882  140.0465  163.0801 C.ar    1  UNL1        0.1964
     28 O         141.0816  139.1738  162.8267 O.2     1  UNL1       -0.4283
     29 C         141.3514  138.3842  164.0731 C.ar    1  UNL1        0.2849
     30 N         140.3248  138.7689  165.0969 N.ar    1  UNL1       -0.2085
     31 C         139.4205  139.7963  164.4831 C.ar    1  UNL1        0.1001
     32 C         138.2534  140.4574  165.1545 C.3     1  UNL1        0.0556
@<TRIPOS>BOND
     1    15    16    1
     2    16     1    1
     3     1     2   ar
     4     2     3   ar
     5     3     4   ar
     6     4     5   ar
     7     5     6   ar
     8     6     7    1
     9     7     8    1
    10     8     9    1
    11     9    10    1
    12    10    11    1
    13    11    12    1
    14    12    13    1
    15    13    17    1
    16    17    18    1
    17    18    19    1
    18    19    20    1
    19    20    21    1
    20    21    22   ar
    21    22    23   ar
    22    23    24   ar
    23    24    27    1
    24    27    28   ar
    25    28    29   ar
    26    29    30   ar
    27    30    31   ar
    28    31    32    1
    29    24    25   ar
    30    25    26    1
    31    13    14    1
    32     6     1   ar
    33    14    10    1
    34    10     5    1
    35    25    21   ar
    36    31    27   ar
@<TRIPOS>MOLECULE
*****
 32 36 0 0 0
SMALL
GASTEIGER

@<TRIPOS>ATOM
      1 C         139.8989  140.7361  168.3460 C.ar    1  UNL1        0.1344
      2 C         140.4608  142.1241  168.4347 C.ar    1  UNL1        0.0366
      3 C         140.4945  142.9988  167.2165 C.ar    1  UNL1        0.0028
      4 C         139.9662  142.4855  165.9098 C.ar    1  UNL1       -0.0044
      5 C         139.4043  141.0976  165.8212 C.ar    1  UNL1       -0.0225
      6 C         139.3706  140.2228  167.0392 C.ar    1  UNL1        0.0079
      7 C         138.8086  138.8349  166.9506 C.3     1  UNL1        0.0291
      8 C         138.2804  138.3217  165.6438 C.3     1  UNL1        0.0051
      9 C         138.3141  139.1964  164.4257 C.3     1  UNL1        0.0058
     10 C         138.8761  140.5844  164.5144 C.3     1  UNL1        0.0348
     11 C         139.4051  141.9865  164.4502 C.3     1  UNL1        0.0227
     12 C         139.2426  142.4792  163.0428 C.3     1  UNL1        0.0725
     13 N         138.6132  141.3816  162.2371 N.3     1  UNL1       -0.2724
     14 C         138.3867  140.2105  163.1467 C.3     1  UNL1        0.0761
     15 C         140.6836  140.2210  170.7685 C.3     1  UNL1        0.2525
     16 O         139.8651  139.8614  169.5641 O.3     1  UNL1       -0.4718
     17 C         138.2705  141.4441  160.7782 C.3     1  UNL1        0.0730
     18 C         137.8218  140.2063  160.0595 C.3     1  UNL1        0.0294
     19 C         138.5172  138.9007  160.3085 C.3     1  UNL1        0.0666
     20 S         139.9426  138.7164  159.8792 S.3     1  UNL1       -0.0756
     21 C         141.0418  138.7380  160.8997 C.ar    1  UNL1        0.1933
     22 N         141.4628  137.5886  161.7666 N.ar    1  UNL1       -0.1220
     23 N         142.5942  138.0531  162.6350 N.ar    1  UNL1       -0.1250
     24 C         142.8725  139.4896  162.3048 C.ar    1  UNL1        0.2029
     25 N         141.9130  139.9129  161.2323 N.ar    1  UNL1       -0.2860
     26 C         141.8380  141.2724  160.6029 C.3     1  UNL1        0.1341
     27 C         143.9253  140.3515  162.9363 C.ar    1  UNL1        0.1964
     28 O         145.1103  140.9498  162.2380 O.2     1  UNL1       -0.4283
     29 C         145.8954  141.7344  163.2470 C.ar    1  UNL1        0.2849
     30 N         145.1954  141.6210  164.5688 N.ar    1  UNL1       -0.2085
     31 C         143.9778  140.7663  164.3767 C.ar    1  UNL1        0.1001
     32 C         142.9868  140.3921  165.4388 C.3     1  UNL1        0.0556
@<TRIPOS>BOND
     1    15    16    1
     2    16     1    1
     3     1     2   ar
     4     2     3   ar
     5     3     4   ar
     6     4     5   ar
     7     5     6   ar
     8     6     7    1
     9     7     8    1
    10     8     9    1
    11     9    10    1
    12    10    11    1
    13    11    12    1
    14    12    13    1
    15    13    17    1
    16    17    18    1
    17    18    19    1
    18    19    20    1
    19    20    21    1
    20    21    22   ar
    21    22    23   ar
    22    23    24   ar
    23    24    27    1
    24    27    28   ar
    25    28    29   ar
    26    29    30   ar
    27    30    31   ar
    28    31    32    1
    29    24    25   ar
    30    25    26    1
    31    13    14    1
    32     6     1   ar
    33    14    10    1
    34    10     5    1
    35    25    21   ar
    36    31    27   ar
@<TRIPOS>MOLECULE
*****
 32 36 0 0 0
SMALL
GASTEIGER

@<TRIPOS>ATOM
      1 C         139.5643  139.9432  167.5127 C.ar    1  UNL1        0.1344
      2 C         138.3998  139.0651  167.1622 C.ar    1  UNL1        0.0366
      3 C         138.4421  138.2233  165.9213 C.ar    1  UNL1        0.0028
      4 C         139.6489  138.2595  165.0312 C.ar    1  UNL1       -0.0044
      5 C         140.8134  139.1376  165.3818 C.ar    1  UNL1       -0.0225
      6 C         140.7712  139.9794  166.6226 C.ar    1  UNL1        0.0079
      7 C         141.9357  140.8575  166.9732 C.3     1  UNL1        0.0291
      8 C         143.1424  140.8937  166.0830 C.3     1  UNL1        0.0051
      9 C         143.1847  140.0518  164.8422 C.3     1  UNL1        0.0058
     10 C         142.0201  139.1738  164.4916 C.3     1  UNL1        0.0348
     11 C         140.9374  138.2519  164.0144 C.3     1  UNL1        0.0227
     12 C         141.4006  137.6144  162.7380 C.3     1  UNL1        0.0725
     13 N         142.7697  138.1423  162.4265 N.3     1  UNL1       -0.2724
     14 C         143.1526  139.1060  163.5103 C.3     1  UNL1        0.0761
     15 C         138.7615  140.3107  169.9562 C.3     1  UNL1        0.2525
     16 O         139.5221  140.7850  168.7535 O.3     1  UNL1       -0.4718
     17 C         143.6085  137.7714  161.2396 C.3     1  UNL1        0.0730
     18 C         142.9523  137.4305  159.9345 C.3     1  UNL1        0.0294
     19 C         142.9212  138.4391  158.8246 C.3     1  UNL1        0.0666
     20 S         143.0500  139.9008  159.1357 S.3     1  UNL1       -0.0756
     21 C         141.9294  140.6228  159.8234 C.ar    1  UNL1        0.1933
     22 N         140.5513  140.0830  160.0676 N.ar    1  UNL1       -0.1220
     23 N         139.7603  141.1379  160.7828 N.ar    1  UNL1       -0.1250
     24 C         140.6495  142.3296  160.9807 C.ar    1  UNL1        0.2029
     25 N         141.9900  142.0112  160.3878 N.ar    1  UNL1       -0.2860
     26 C         143.1820  142.9215  160.3634 C.3     1  UNL1        0.1341
     27 C         140.2655  143.6141  161.6534 C.ar    1  UNL1        0.1964
     28 O         140.0450  144.9333  160.9744 O.2     1  UNL1       -0.4283
     29 C         139.6779  145.9395  162.0246 C.ar    1  UNL1        0.2849
     30 N         139.6715  145.2421  163.3526 N.ar    1  UNL1       -0.2085
     31 C         140.0347  143.8049  163.1232 C.ar    1  UNL1        0.1001
     32 C         140.1472  142.7447  164.1783 C.3     1  UNL1        0.0556
@<TRIPOS>BOND
     1    15    16    1
     2    16     1    1
     3     1     2   ar
     4     2     3   ar
     5     3     4   ar
     6     4     5   ar
     7     5     6   ar
     8     6     7    1
     9     7     8    1
    10     8     9    1
    11     9    10    1
    12    10    11    1
    13    11    12    1
    14    12    13    1
    15    13    17    1
    16    17    18    1
    17    18    19    1
    18    19    20    1
    19    20    21    1
    20    21    22   ar
    21    22    23   ar
    22    23    24   ar
    23    24    27    1
    24    27    28   ar
    25    28    29   ar
    26    29    30   ar
    27    30    31   ar
    28    31    32    1
    29    24    25   ar
    30    25    26    1
    31    13    14    1
    32     6     1   ar
    33    14    10    1
    34    10     5    1
    35    25    21   ar
    36    31    27   ar
