@<TRIPOS>MOLECULE
*****
 35 39 0 0 0
SMALL
GASTEIGER

@<TRIPOS>ATOM
      1 C         140.1282  139.6221  159.6331 C.ar    1  UNL1        0.1740
      2 N         140.8112  138.5542  158.8311 N.ar    1  UNL1       -0.2259
      3 C         140.8632  138.6572  157.3355 C.ar    1  UNL1        0.0830
      4 C         140.2322  139.8280  156.6419 C.ar    1  UNL1        0.0199
      5 C         139.5492  140.8959  157.4439 C.ar    1  UNL1        0.0141
      6 C         139.4973  140.7930  158.9394 C.ar    1  UNL1        0.1042
      7 C         143.3611  140.9707  162.6013 C.ar    1  UNL1        0.1681
      8 N         142.6363  140.5677  163.8512 N.ar    1  UNL1       -0.1537
      9 N         141.3175  139.9749  163.4516 N.ar    1  UNL1       -0.2061
     10 C         141.2273  140.0116  161.9548 C.ar    1  UNL1        0.1982
     11 N         140.0762  139.5193  161.1286 N.2     1  UNL1       -0.2011
     12 S         142.4902  140.6270  161.4292 S.2     1  UNL1       -0.0250
     13 C         140.2725  139.4395  164.3851 C.ar    1  UNL1        0.0849
     14 C         139.5647  140.3656  165.3291 C.ar    1  UNL1        0.0192
     15 C         138.5197  139.8302  166.2625 C.ar    1  UNL1        0.0015
     16 C         138.1826  138.3686  166.2519 C.ar    1  UNL1        0.0001
     17 C         138.8904  137.4425  165.3080 C.ar    1  UNL1        0.0015
     18 C         139.9354  137.9779  164.3746 C.ar    1  UNL1        0.0192
     19 C         145.6802  141.4405  163.6741 C.3     1  UNL1        0.0796
     20 C         144.7183  141.6058  162.5350 C.2     1  UNL1        0.1989
     21 O         145.1137  142.4063  161.3296 O.2     1  UNL1       -0.2891
     22 C         141.5461  137.5893  156.5335 C.ar    1  UNL1        0.0177
     23 C         140.7320  136.6171  155.7321 C.ar    1  UNL1        0.0015
     24 C         141.4149  135.5492  154.9302 C.ar    1  UNL1        0.0000
     25 C         142.9119  135.4535  154.9295 C.ar    1  UNL1        0.0000
     26 C         143.7259  136.4257  155.7308 C.ar    1  UNL1        0.0000
     27 C         143.0430  137.4936  156.5329 C.ar    1  UNL1        0.0015
     28 C         138.9183  142.0667  156.7503 C.ar    1  UNL1        0.0008
     29 C         139.7354  143.2869  156.4445 C.ar    1  UNL1        0.0000
     30 C         139.1044  144.4577  155.7509 C.ar    1  UNL1        0.0000
     31 C         137.6562  144.4082  155.3630 C.ar    1  UNL1        0.0000
     32 C         136.8391  143.1880  155.6687 C.ar    1  UNL1        0.0000
     33 C         137.4701  142.0173  156.3624 C.ar    1  UNL1        0.0000
     34 C         138.8143  141.8609  159.7414 C.1     1  UNL1        0.1035
     35 N         138.1314  142.9288  160.5434 N.1     1  UNL1       -0.1907
@<TRIPOS>BOND
     1    19    20    1
     2    20    21    2
     3    20     7    1
     4     7     8   ar
     5     8     9   ar
     6     9    13    1
     7    13    14   ar
     8    14    15   ar
     9    15    16   ar
    10    16    17   ar
    11    17    18   ar
    12     9    10   ar
    13    10    11    2
    14    11     1    1
    15     1     2   ar
    16     2     3   ar
    17     3    22    1
    18    22    23   ar
    19    23    24   ar
    20    24    25   ar
    21    25    26   ar
    22    26    27   ar
    23     3     4   ar
    24     4     5   ar
    25     5    28    1
    26    28    29   ar
    27    29    30   ar
    28    30    31   ar
    29    31    32   ar
    30    32    33   ar
    31     5     6   ar
    32     6    34    1
    33    34    35    3
    34    10    12   ar
    35    12     7   ar
    36    18    13   ar
    37     6     1   ar
    38    27    22   ar
    39    33    28   ar
@<TRIPOS>MOLECULE
*****
 35 39 0 0 0
SMALL
GASTEIGER

@<TRIPOS>ATOM
      1 C         140.8530  139.3945  161.2387 C.ar    1  UNL1        0.1740
      2 N         140.0341  138.7903  162.3406 N.ar    1  UNL1       -0.2259
      3 C         139.9441  139.4768  163.6712 C.ar    1  UNL1        0.0830
      4 C         140.6731  140.7677  163.8999 C.ar    1  UNL1        0.0199
      5 C         141.4920  141.3719  162.7980 C.ar    1  UNL1        0.0141
      6 C         141.5819  140.6854  161.4675 C.ar    1  UNL1        0.1042
      7 C         138.2725  140.2213  157.5322 C.ar    1  UNL1        0.1681
      8 N         138.9112  139.2005  156.6378 N.ar    1  UNL1       -0.1537
      9 N         139.9893  138.5094  157.4189 N.ar    1  UNL1       -0.2061
     10 C         140.0169  139.1031  158.7961 C.ar    1  UNL1        0.1982
     11 N         140.9430  138.7081  159.9081 N.2     1  UNL1       -0.2011
     12 S         138.9559  140.1610  158.8662 S.2     1  UNL1       -0.0250
     13 C         140.8829  137.4165  156.9117 C.ar    1  UNL1        0.0849
     14 C         142.2683  137.2628  157.4658 C.ar    1  UNL1        0.0192
     15 C         143.1618  136.1699  156.9586 C.ar    1  UNL1        0.0015
     16 C         142.6699  135.2308  155.8974 C.ar    1  UNL1        0.0001
     17 C         141.2846  135.3846  155.3434 C.ar    1  UNL1        0.0015
     18 C         140.3910  136.4774  155.8505 C.ar    1  UNL1        0.0192
     19 C         137.3896  142.6176  157.0546 C.3     1  UNL1        0.0796
     20 C         137.1479  141.1408  157.1584 C.2     1  UNL1        0.1989
     21 O         135.7817  140.5836  156.8885 O.2     1  UNL1       -0.2891
     22 C         139.1252  138.8725  164.7731 C.ar    1  UNL1        0.0177
     23 C         138.5730  139.7444  165.8618 C.ar    1  UNL1        0.0015
     24 C         137.7541  139.1401  166.9637 C.ar    1  UNL1        0.0000
     25 C         137.4873  137.6641  166.9770 C.ar    1  UNL1        0.0000
     26 C         138.0395  136.7923  165.8884 C.ar    1  UNL1        0.0000
     27 C         138.8585  137.3965  164.7864 C.ar    1  UNL1        0.0015
     28 C         142.2210  142.6628  163.0268 C.ar    1  UNL1        0.0008
     29 C         141.4625  143.9565  163.0624 C.ar    1  UNL1        0.0000
     30 C         142.1915  145.2473  163.2912 C.ar    1  UNL1        0.0000
     31 C         143.6790  145.2444  163.4844 C.ar    1  UNL1        0.0000
     32 C         144.4375  143.9508  163.4488 C.ar    1  UNL1        0.0000
     33 C         143.7085  142.6600  163.2200 C.ar    1  UNL1        0.0000
     34 C         142.4009  141.2898  160.3655 C.1     1  UNL1        0.1035
     35 N         143.2198  141.8941  159.2636 N.1     1  UNL1       -0.1907
@<TRIPOS>BOND
     1    19    20    1
     2    20    21    2
     3    20     7    1
     4     7     8   ar
     5     8     9   ar
     6     9    13    1
     7    13    14   ar
     8    14    15   ar
     9    15    16   ar
    10    16    17   ar
    11    17    18   ar
    12     9    10   ar
    13    10    11    2
    14    11     1    1
    15     1     2   ar
    16     2     3   ar
    17     3    22    1
    18    22    23   ar
    19    23    24   ar
    20    24    25   ar
    21    25    26   ar
    22    26    27   ar
    23     3     4   ar
    24     4     5   ar
    25     5    28    1
    26    28    29   ar
    27    29    30   ar
    28    30    31   ar
    29    31    32   ar
    30    32    33   ar
    31     5     6   ar
    32     6    34    1
    33    34    35    3
    34    10    12   ar
    35    12     7   ar
    36    18    13   ar
    37     6     1   ar
    38    27    22   ar
    39    33    28   ar
@<TRIPOS>MOLECULE
*****
 35 39 0 0 0
SMALL
GASTEIGER

@<TRIPOS>ATOM
      1 C         144.7983  141.2744  157.6728 C.ar    1  UNL1        0.1740
      2 N         145.9597  141.8786  156.9406 N.ar    1  UNL1       -0.2259
      3 C         146.3992  141.3037  155.6267 C.ar    1  UNL1        0.0830
      4 C         145.6772  140.1245  155.0450 C.ar    1  UNL1        0.0199
      5 C         144.5159  139.5203  155.7772 C.ar    1  UNL1        0.0141
      6 C         144.0764  140.0952  157.0910 C.ar    1  UNL1        0.1042
      7 C         141.8668  144.7488  158.3169 C.ar    1  UNL1        0.1681
      8 N         141.9200  144.7527  159.8160 N.ar    1  UNL1       -0.1537
      9 N         142.8600  143.6670  160.2493 N.ar    1  UNL1       -0.2061
     10 C         143.3878  142.9921  159.0181 C.ar    1  UNL1        0.1982
     11 N         144.3588  141.8493  158.9866 N.2     1  UNL1       -0.2011
     12 S         142.7740  143.6607  157.8238 S.2     1  UNL1       -0.0250
     13 C         143.2106  143.3176  161.6654 C.ar    1  UNL1        0.0849
     14 C         143.0848  141.9008  162.1414 C.ar    1  UNL1        0.0192
     15 C         143.4354  141.5515  163.5574 C.ar    1  UNL1        0.0015
     16 C         143.9119  142.6190  164.4973 C.ar    1  UNL1        0.0001
     17 C         144.0378  144.0358  164.0212 C.ar    1  UNL1        0.0015
     18 C         143.6871  144.3851  162.6052 C.ar    1  UNL1        0.0192
     19 C         141.4307  145.8986  156.0283 C.3     1  UNL1        0.0796
     20 C         141.0500  145.6711  157.4613 C.2     1  UNL1        0.1989
     21 O         139.8525  146.3658  158.0386 O.2     1  UNL1       -0.2891
     22 C         147.5605  141.9078  154.8945 C.ar    1  UNL1        0.0177
     23 C         148.9624  141.5213  155.2628 C.ar    1  UNL1        0.0015
     24 C         150.1238  142.1255  154.5306 C.ar    1  UNL1        0.0000
     25 C         149.8834  143.1162  153.4301 C.ar    1  UNL1        0.0000
     26 C         148.4816  143.5026  153.0619 C.ar    1  UNL1        0.0000
     27 C         147.3201  142.8985  153.7941 C.ar    1  UNL1        0.0015
     28 C         143.7939  138.3411  155.1954 C.ar    1  UNL1        0.0008
     29 C         142.6577  138.5541  154.2397 C.ar    1  UNL1        0.0000
     30 C         141.9358  137.3749  153.6579 C.ar    1  UNL1        0.0000
     31 C         142.3503  135.9827  154.0320 C.ar    1  UNL1        0.0000
     32 C         143.4865  135.7697  154.9878 C.ar    1  UNL1        0.0000
     33 C         144.2084  136.9489  155.5695 C.ar    1  UNL1        0.0000
     34 C         142.9150  139.4910  157.8232 C.1     1  UNL1        0.1035
     35 N         141.7536  138.8868  158.5554 N.1     1  UNL1       -0.1907
@<TRIPOS>BOND
     1    19    20    1
     2    20    21    2
     3    20     7    1
     4     7     8   ar
     5     8     9   ar
     6     9    13    1
     7    13    14   ar
     8    14    15   ar
     9    15    16   ar
    10    16    17   ar
    11    17    18   ar
    12     9    10   ar
    13    10    11    2
    14    11     1    1
    15     1     2   ar
    16     2     3   ar
    17     3    22    1
    18    22    23   ar
    19    23    24   ar
    20    24    25   ar
    21    25    26   ar
    22    26    27   ar
    23     3     4   ar
    24     4     5   ar
    25     5    28    1
    26    28    29   ar
    27    29    30   ar
    28    30    31   ar
    29    31    32   ar
    30    32    33   ar
    31     5     6   ar
    32     6    34    1
    33    34    35    3
    34    10    12   ar
    35    12     7   ar
    36    18    13   ar
    37     6     1   ar
    38    27    22   ar
    39    33    28   ar
@<TRIPOS>MOLECULE
*****
 35 39 0 0 0
SMALL
GASTEIGER

@<TRIPOS>ATOM
      1 C         141.3772  142.6627  157.6912 C.ar    1  UNL1        0.1740
      2 N         141.0436  143.7675  156.7331 N.ar    1  UNL1       -0.2259
      3 C         140.5201  145.0751  157.2491 C.ar    1  UNL1        0.0830
      4 C         140.3302  145.2778  158.7232 C.ar    1  UNL1        0.0199
      5 C         140.6639  144.1729  159.6812 C.ar    1  UNL1        0.0141
      6 C         141.1873  142.8654  159.1653 C.ar    1  UNL1        0.1042
      7 C         145.7425  141.6407  156.7014 C.ar    1  UNL1        0.1681
      8 N         145.5007  140.2266  156.2633 N.ar    1  UNL1       -0.1537
      9 N         144.0321  139.9475  156.3875 N.ar    1  UNL1       -0.2061
     10 C         143.3663  141.1891  156.9024 C.ar    1  UNL1        0.1982
     11 N         141.9007  141.3551  157.1753 N.2     1  UNL1       -0.2011
     12 S         144.4233  142.2355  157.0964 S.2     1  UNL1       -0.0250
     13 C         143.3493  138.6539  156.0552 C.ar    1  UNL1        0.0849
     14 C         142.8088  137.7873  157.1538 C.ar    1  UNL1        0.0192
     15 C         142.1260  136.4938  156.8214 C.ar    1  UNL1        0.0015
     16 C         141.9838  136.0668  155.3905 C.ar    1  UNL1        0.0001
     17 C         142.5244  136.9333  154.2920 C.ar    1  UNL1        0.0015
     18 C         143.2071  138.2268  154.6243 C.ar    1  UNL1        0.0192
     19 C         148.0494  142.1453  155.6181 C.3     1  UNL1        0.0796
     20 C         147.0703  142.3376  156.7381 C.2     1  UNL1        0.1989
     21 O         147.4189  143.2267  157.8947 O.2     1  UNL1       -0.2891
     22 C         140.1864  146.1799  156.2910 C.ar    1  UNL1        0.0177
     23 C         140.8231  146.2130  154.9332 C.ar    1  UNL1        0.0015
     24 C         140.4895  147.3178  153.9752 C.ar    1  UNL1        0.0000
     25 C         139.5191  148.3897  154.3748 C.ar    1  UNL1        0.0000
     26 C         138.8825  148.3566  155.7325 C.ar    1  UNL1        0.0000
     27 C         139.2161  147.2517  156.6907 C.ar    1  UNL1        0.0015
     28 C         140.4740  144.3757  161.1554 C.ar    1  UNL1        0.0008
     29 C         139.1519  144.0631  161.7913 C.ar    1  UNL1        0.0000
     30 C         138.9621  144.2659  163.2654 C.ar    1  UNL1        0.0000
     31 C         140.0943  144.7812  164.1035 C.ar    1  UNL1        0.0000
     32 C         141.4164  145.0938  163.4675 C.ar    1  UNL1        0.0000
     33 C         141.6062  144.8910  161.9934 C.ar    1  UNL1        0.0000
     34 C         141.5210  141.7605  160.1235 C.1     1  UNL1        0.1035
     35 N         141.8547  140.6556  161.0815 N.1     1  UNL1       -0.1907
@<TRIPOS>BOND
     1    19    20    1
     2    20    21    2
     3    20     7    1
     4     7     8   ar
     5     8     9   ar
     6     9    13    1
     7    13    14   ar
     8    14    15   ar
     9    15    16   ar
    10    16    17   ar
    11    17    18   ar
    12     9    10   ar
    13    10    11    2
    14    11     1    1
    15     1     2   ar
    16     2     3   ar
    17     3    22    1
    18    22    23   ar
    19    23    24   ar
    20    24    25   ar
    21    25    26   ar
    22    26    27   ar
    23     3     4   ar
    24     4     5   ar
    25     5    28    1
    26    28    29   ar
    27    29    30   ar
    28    30    31   ar
    29    31    32   ar
    30    32    33   ar
    31     5     6   ar
    32     6    34    1
    33    34    35    3
    34    10    12   ar
    35    12     7   ar
    36    18    13   ar
    37     6     1   ar
    38    27    22   ar
    39    33    28   ar
@<TRIPOS>MOLECULE
*****
 35 39 0 0 0
SMALL
GASTEIGER

@<TRIPOS>ATOM
      1 C         142.1075  141.8078  159.1723 C.ar    1  UNL1        0.1740
      2 N         143.4541  141.6119  158.5412 N.ar    1  UNL1       -0.2259
      3 C         143.8108  142.3565  157.2888 C.ar    1  UNL1        0.0830
      4 C         142.8210  143.2969  156.6676 C.ar    1  UNL1        0.0199
      5 C         141.4744  143.4927  157.2988 C.ar    1  UNL1        0.0141
      6 C         141.1177  142.7482  158.5510 C.ar    1  UNL1        0.1042
      7 C         143.1809  142.9857  163.4781 C.ar    1  UNL1        0.1681
      8 N         142.5188  141.8212  164.1530 N.ar    1  UNL1       -0.1537
      9 N         141.9024  140.9593  163.0913 N.ar    1  UNL1       -0.2061
     10 C         142.1836  141.5911  161.7602 C.ar    1  UNL1        0.1982
     11 N         141.7506  141.0633  160.4246 N.2     1  UNL1       -0.2011
     12 S         142.9737  142.8435  161.9993 S.2     1  UNL1       -0.0250
     13 C         141.1389  139.6886  163.3204 C.ar    1  UNL1        0.0849
     14 C         141.8445  138.4742  163.8469 C.ar    1  UNL1        0.0192
     15 C         141.0809  137.2036  164.0761 C.ar    1  UNL1        0.0015
     16 C         139.6118  137.1474  163.7787 C.ar    1  UNL1        0.0001
     17 C         138.9062  138.3618  163.2521 C.ar    1  UNL1        0.0015
     18 C         139.6697  139.6324  163.0230 C.ar    1  UNL1        0.0192
     19 C         144.6524  143.8334  165.4444 C.3     1  UNL1        0.0796
     20 C         143.9204  144.0972  164.1620 C.2     1  UNL1        0.1989
     21 O         143.9278  145.4726  163.5634 O.2     1  UNL1       -0.2891
     22 C         145.1574  142.1607  156.6577 C.ar    1  UNL1        0.0177
     23 C         145.2718  141.4579  155.3374 C.ar    1  UNL1        0.0015
     24 C         146.6183  141.2621  154.7062 C.ar    1  UNL1        0.0000
     25 C         147.8506  141.7689  155.3953 C.ar    1  UNL1        0.0000
     26 C         147.7362  142.4716  156.7156 C.ar    1  UNL1        0.0000
     27 C         146.3896  142.6675  157.3468 C.ar    1  UNL1        0.0015
     28 C         140.4846  144.4332  156.6775 C.ar    1  UNL1        0.0008
     29 C         139.4877  143.9216  155.6803 C.ar    1  UNL1        0.0000
     30 C         138.4980  144.8621  155.0590 C.ar    1  UNL1        0.0000
     31 C         138.5052  146.3141  155.4351 C.ar    1  UNL1        0.0000
     32 C         139.5021  146.8258  156.4323 C.ar    1  UNL1        0.0000
     33 C         140.4918  145.8853  157.0535 C.ar    1  UNL1        0.0000
     34 C         139.7710  142.9441  159.1822 C.1     1  UNL1        0.1035
     35 N         138.4244  143.1399  159.8133 N.1     1  UNL1       -0.1907
@<TRIPOS>BOND
     1    19    20    1
     2    20    21    2
     3    20     7    1
     4     7     8   ar
     5     8     9   ar
     6     9    13    1
     7    13    14   ar
     8    14    15   ar
     9    15    16   ar
    10    16    17   ar
    11    17    18   ar
    12     9    10   ar
    13    10    11    2
    14    11     1    1
    15     1     2   ar
    16     2     3   ar
    17     3    22    1
    18    22    23   ar
    19    23    24   ar
    20    24    25   ar
    21    25    26   ar
    22    26    27   ar
    23     3     4   ar
    24     4     5   ar
    25     5    28    1
    26    28    29   ar
    27    29    30   ar
    28    30    31   ar
    29    31    32   ar
    30    32    33   ar
    31     5     6   ar
    32     6    34    1
    33    34    35    3
    34    10    12   ar
    35    12     7   ar
    36    18    13   ar
    37     6     1   ar
    38    27    22   ar
    39    33    28   ar
@<TRIPOS>MOLECULE
*****
 35 39 0 0 0
SMALL
GASTEIGER

@<TRIPOS>ATOM
      1 C         139.7144  138.5272  157.3989 C.ar    1  UNL1        0.1740
      2 N         138.8465  139.1201  156.3287 N.ar    1  UNL1       -0.2259
      3 C         137.9235  140.2564  156.6555 C.ar    1  UNL1        0.0830
      4 C         137.8683  140.7999  158.0524 C.ar    1  UNL1        0.0199
      5 C         138.7362  140.2071  159.1226 C.ar    1  UNL1        0.0141
      6 C         139.6592  139.0708  158.7959 C.ar    1  UNL1        0.1042
      7 C         144.0248  138.8378  155.8485 C.ar    1  UNL1        0.1681
      8 N         144.2900  137.3641  155.7597 N.ar    1  UNL1       -0.1537
      9 N         143.0534  136.6427  156.2073 N.ar    1  UNL1       -0.2061
     10 C         142.0238  137.6706  156.5727 C.ar    1  UNL1        0.1982
     11 N         140.6374  137.3909  157.0722 N.2     1  UNL1       -0.2011
     12 S         142.6241  139.0272  156.3510 S.2     1  UNL1       -0.0250
     13 C         142.8773  135.1547  156.2772 C.ar    1  UNL1        0.0849
     14 C         143.7298  134.3413  157.2054 C.ar    1  UNL1        0.0192
     15 C         143.5536  132.8534  157.2752 C.ar    1  UNL1        0.0015
     16 C         142.5250  132.1788  156.4169 C.ar    1  UNL1        0.0001
     17 C         141.6724  132.9922  155.4887 C.ar    1  UNL1        0.0015
     18 C         141.8486  134.4801  155.4188 C.ar    1  UNL1        0.0192
     19 C         145.3883  140.1479  154.0668 C.3     1  UNL1        0.0796
     20 C         144.9905  139.9303  155.4966 C.2     1  UNL1        0.1989
     21 O         145.5585  140.8051  156.5746 O.2     1  UNL1       -0.2891
     22 C         137.0556  140.8492  155.5853 C.ar    1  UNL1        0.0177
     23 C         136.0587  139.9894  154.8662 C.ar    1  UNL1        0.0015
     24 C         135.1908  140.5822  153.7961 C.ar    1  UNL1        0.0000
     25 C         135.3198  142.0349  153.4449 C.ar    1  UNL1        0.0000
     26 C         136.3166  142.8946  154.1639 C.ar    1  UNL1        0.0000
     27 C         137.1846  142.3019  155.2342 C.ar    1  UNL1        0.0015
     28 C         138.6810  140.7506  160.5197 C.ar    1  UNL1        0.0008
     29 C         139.6078  141.8558  160.9316 C.ar    1  UNL1        0.0000
     30 C         139.5526  142.3993  162.3286 C.ar    1  UNL1        0.0000
     31 C         138.5706  141.8376  163.3136 C.ar    1  UNL1        0.0000
     32 C         137.6438  140.7325  162.9016 C.ar    1  UNL1        0.0000
     33 C         137.6990  140.1890  161.5046 C.ar    1  UNL1        0.0000
     34 C         140.5271  138.4779  159.8661 C.1     1  UNL1        0.1035
     35 N         141.3950  137.8851  160.9364 N.1     1  UNL1       -0.1907
@<TRIPOS>BOND
     1    19    20    1
     2    20    21    2
     3    20     7    1
     4     7     8   ar
     5     8     9   ar
     6     9    13    1
     7    13    14   ar
     8    14    15   ar
     9    15    16   ar
    10    16    17   ar
    11    17    18   ar
    12     9    10   ar
    13    10    11    2
    14    11     1    1
    15     1     2   ar
    16     2     3   ar
    17     3    22    1
    18    22    23   ar
    19    23    24   ar
    20    24    25   ar
    21    25    26   ar
    22    26    27   ar
    23     3     4   ar
    24     4     5   ar
    25     5    28    1
    26    28    29   ar
    27    29    30   ar
    28    30    31   ar
    29    31    32   ar
    30    32    33   ar
    31     5     6   ar
    32     6    34    1
    33    34    35    3
    34    10    12   ar
    35    12     7   ar
    36    18    13   ar
    37     6     1   ar
    38    27    22   ar
    39    33    28   ar
@<TRIPOS>MOLECULE
*****
 35 39 0 0 0
SMALL
GASTEIGER

@<TRIPOS>ATOM
      1 C         139.5197  139.3856  159.0860 C.ar    1  UNL1        0.1740
      2 N         138.4300  139.9088  158.1978 N.ar    1  UNL1       -0.2259
      3 C         138.5488  139.7778  156.7083 C.ar    1  UNL1        0.0830
      4 C         139.7571  139.1235  156.1069 C.ar    1  UNL1        0.0199
      5 C         140.8468  138.6003  156.9950 C.ar    1  UNL1        0.0141
      6 C         140.7281  138.7313  158.4845 C.ar    1  UNL1        0.1042
      7 C         140.4463  143.1096  161.6064 C.ar    1  UNL1        0.1681
      8 N         140.1099  142.5117  162.9403 N.ar    1  UNL1       -0.1537
      9 N         139.6774  141.0929  162.7164 N.ar    1  UNL1       -0.2061
     10 C         139.7465  140.8140  161.2442 C.ar    1  UNL1        0.1982
     11 N         139.4011  139.5166  160.5755 N.2     1  UNL1       -0.2011
     12 S         140.2217  142.0604  160.5582 S.2     1  UNL1       -0.0250
     13 C         139.2507  140.1233  163.7784 C.ar    1  UNL1        0.0849
     14 C         138.4233  140.5959  164.9369 C.ar    1  UNL1        0.0192
     15 C         137.9966  139.6263  165.9988 C.ar    1  UNL1        0.0015
     16 C         138.3974  138.1840  165.9023 C.ar    1  UNL1        0.0001
     17 C         139.2248  137.7114  164.7439 C.ar    1  UNL1        0.0015
     18 C         139.6515  138.6810  163.6820 C.ar    1  UNL1        0.0192
     19 C         140.2110  145.6669  162.0005 C.3     1  UNL1        0.0796
     20 C         140.9235  144.5108  161.3634 C.2     1  UNL1        0.1989
     21 O         142.1132  144.7558  160.4833 O.2     1  UNL1       -0.2891
     22 C         137.4591  140.3010  155.8201 C.ar    1  UNL1        0.0177
     23 C         137.0056  139.4981  154.6369 C.ar    1  UNL1        0.0015
     24 C         135.9159  140.0213  153.7488 C.ar    1  UNL1        0.0000
     25 C         135.2797  141.3473  154.0437 C.ar    1  UNL1        0.0000
     26 C         135.7332  142.1501  155.2269 C.ar    1  UNL1        0.0000
     27 C         136.8229  141.6270  156.1151 C.ar    1  UNL1        0.0015
     28 C         142.0553  137.9460  156.3935 C.ar    1  UNL1        0.0008
     29 C         142.1153  136.4524  156.2682 C.ar    1  UNL1        0.0000
     30 C         143.3237  135.7982  155.6667 C.ar    1  UNL1        0.0000
     31 C         144.4720  136.6376  155.1906 C.ar    1  UNL1        0.0000
     32 C         144.4120  138.1311  155.3158 C.ar    1  UNL1        0.0000
     33 C         143.2036  138.7853  155.9173 C.ar    1  UNL1        0.0000
     34 C         141.8179  138.2080  159.3726 C.1     1  UNL1        0.1035
     35 N         142.9076  137.6848  160.2608 N.1     1  UNL1       -0.1907
@<TRIPOS>BOND
     1    19    20    1
     2    20    21    2
     3    20     7    1
     4     7     8   ar
     5     8     9   ar
     6     9    13    1
     7    13    14   ar
     8    14    15   ar
     9    15    16   ar
    10    16    17   ar
    11    17    18   ar
    12     9    10   ar
    13    10    11    2
    14    11     1    1
    15     1     2   ar
    16     2     3   ar
    17     3    22    1
    18    22    23   ar
    19    23    24   ar
    20    24    25   ar
    21    25    26   ar
    22    26    27   ar
    23     3     4   ar
    24     4     5   ar
    25     5    28    1
    26    28    29   ar
    27    29    30   ar
    28    30    31   ar
    29    31    32   ar
    30    32    33   ar
    31     5     6   ar
    32     6    34    1
    33    34    35    3
    34    10    12   ar
    35    12     7   ar
    36    18    13   ar
    37     6     1   ar
    38    27    22   ar
    39    33    28   ar
@<TRIPOS>MOLECULE
*****
 35 39 0 0 0
SMALL
GASTEIGER

@<TRIPOS>ATOM
      1 C         142.2149  141.1321  158.5543 C.ar    1  UNL1        0.1740
      2 N         143.2976  141.8911  157.8460 N.ar    1  UNL1       -0.2259
      3 C         143.9626  141.2984  156.6391 C.ar    1  UNL1        0.0830
      4 C         143.5448  139.9468  156.1405 C.ar    1  UNL1        0.0199
      5 C         142.4621  139.1879  156.8488 C.ar    1  UNL1        0.0141
      6 C         141.7972  139.7804  158.0556 C.ar    1  UNL1        0.1042
      7 C         143.8654  141.2340  162.8374 C.ar    1  UNL1        0.1681
      8 N         142.7030  141.9486  163.4606 N.ar    1  UNL1       -0.1537
      9 N         141.6942  142.2194  162.3840 N.ar    1  UNL1       -0.2061
     10 C         142.2330  141.6721  161.0956 C.ar    1  UNL1        0.1982
     11 N         141.5499  141.7246  159.7611 N.2     1  UNL1       -0.2011
     12 S         143.5749  141.0632  161.3757 S.2     1  UNL1       -0.0250
     13 C         140.3776  142.9152  162.5643 C.ar    1  UNL1        0.0849
     14 C         140.3327  144.4061  162.7225 C.ar    1  UNL1        0.0192
     15 C         139.0162  145.1019  162.9028 C.ar    1  UNL1        0.0015
     16 C         137.7445  144.3068  162.9250 C.ar    1  UNL1        0.0001
     17 C         137.7893  142.8158  162.7668 C.ar    1  UNL1        0.0015
     18 C         139.1059  142.1200  162.5865 C.ar    1  UNL1        0.0192
     19 C         145.0798  139.4942  164.3369 C.3     1  UNL1        0.0796
     20 C         145.1012  140.7715  163.5507 C.2     1  UNL1        0.1989
     21 O         146.3585  141.5863  163.4778 O.2     1  UNL1       -0.2891
     22 C         145.0453  142.0574  155.9308 C.ar    1  UNL1        0.0177
     23 C         146.4643  141.9601  156.4074 C.ar    1  UNL1        0.0015
     24 C         147.5470  142.7191  155.6991 C.ar    1  UNL1        0.0000
     25 C         147.2108  143.5753  154.5142 C.ar    1  UNL1        0.0000
     26 C         145.7919  143.6725  154.0376 C.ar    1  UNL1        0.0000
     27 C         144.7090  142.9135  154.7459 C.ar    1  UNL1        0.0015
     28 C         142.0444  137.8362  156.3501 C.ar    1  UNL1        0.0008
     29 C         140.9096  137.7136  155.3767 C.ar    1  UNL1        0.0000
     30 C         140.4919  136.3619  154.8781 C.ar    1  UNL1        0.0000
     31 C         141.2090  135.1329  155.3528 C.ar    1  UNL1        0.0000
     32 C         142.3437  135.2556  156.3262 C.ar    1  UNL1        0.0000
     33 C         142.7614  136.6072  156.8248 C.ar    1  UNL1        0.0000
     34 C         140.7144  139.0214  158.7639 C.1     1  UNL1        0.1035
     35 N         139.6317  138.2625  159.4722 N.1     1  UNL1       -0.1907
@<TRIPOS>BOND
     1    19    20    1
     2    20    21    2
     3    20     7    1
     4     7     8   ar
     5     8     9   ar
     6     9    13    1
     7    13    14   ar
     8    14    15   ar
     9    15    16   ar
    10    16    17   ar
    11    17    18   ar
    12     9    10   ar
    13    10    11    2
    14    11     1    1
    15     1     2   ar
    16     2     3   ar
    17     3    22    1
    18    22    23   ar
    19    23    24   ar
    20    24    25   ar
    21    25    26   ar
    22    26    27   ar
    23     3     4   ar
    24     4     5   ar
    25     5    28    1
    26    28    29   ar
    27    29    30   ar
    28    30    31   ar
    29    31    32   ar
    30    32    33   ar
    31     5     6   ar
    32     6    34    1
    33    34    35    3
    34    10    12   ar
    35    12     7   ar
    36    18    13   ar
    37     6     1   ar
    38    27    22   ar
    39    33    28   ar
@<TRIPOS>MOLECULE
*****
 35 39 0 0 0
SMALL
GASTEIGER

@<TRIPOS>ATOM
      1 C         139.2616  141.1303  160.7572 C.ar    1  UNL1        0.1740
      2 N         138.7867  140.1860  161.8215 N.ar    1  UNL1       -0.2259
      3 C         139.3518  140.2735  163.2082 C.ar    1  UNL1        0.0830
      4 C         140.3918  141.3052  163.5306 C.ar    1  UNL1        0.0199
      5 C         140.8667  142.2495  162.4663 C.ar    1  UNL1        0.0141
      6 C         140.3016  142.1621  161.0797 C.ar    1  UNL1        0.1042
      7 C         140.7077  138.4011  157.3601 C.ar    1  UNL1        0.1681
      8 N         139.7111  138.8500  156.3329 N.ar    1  UNL1       -0.1537
      9 N         138.8364  139.8943  156.9609 N.ar    1  UNL1       -0.2061
     10 C         139.2924  140.0908  158.3763 C.ar    1  UNL1        0.1982
     11 N         138.6966  141.0429  159.3705 N.2     1  UNL1       -0.2011
     12 S         140.4489  139.1679  158.6231 S.2     1  UNL1       -0.0250
     13 C         137.7045  140.6155  156.2910 C.ar    1  UNL1        0.0849
     14 C         137.6294  142.1124  156.3501 C.ar    1  UNL1        0.0192
     15 C         136.4975  142.8336  155.6802 C.ar    1  UNL1        0.0015
     16 C         135.4407  142.0577  154.9514 C.ar    1  UNL1        0.0001
     17 C         135.5158  140.5608  154.8923 C.ar    1  UNL1        0.0015
     18 C         136.6477  139.8397  155.5622 C.ar    1  UNL1        0.0192
     19 C         141.5749  136.2654  156.1614 C.3     1  UNL1        0.0796
     20 C         141.7755  137.3669  157.1597 C.2     1  UNL1        0.1989
     21 O         143.0439  137.4341  157.9576 O.2     1  UNL1       -0.2891
     22 C         138.8770  139.3292  164.2726 C.ar    1  UNL1        0.0177
     23 C         139.0109  137.8482  164.0753 C.ar    1  UNL1        0.0015
     24 C         138.5361  136.9039  165.1397 C.ar    1  UNL1        0.0000
     25 C         137.9273  137.4405  166.4012 C.ar    1  UNL1        0.0000
     26 C         137.7934  138.9214  166.5984 C.ar    1  UNL1        0.0000
     27 C         138.2682  139.8659  165.5341 C.ar    1  UNL1        0.0015
     28 C         141.9067  143.2813  162.7888 C.ar    1  UNL1        0.0008
     29 C         141.5211  144.5309  163.5235 C.ar    1  UNL1        0.0000
     30 C         142.5611  145.5626  163.8460 C.ar    1  UNL1        0.0000
     31 C         143.9867  145.3447  163.4336 C.ar    1  UNL1        0.0000
     32 C         144.3723  144.0951  162.6988 C.ar    1  UNL1        0.0000
     33 C         143.3323  143.0634  162.3764 C.ar    1  UNL1        0.0000
     34 C         140.7765  143.1064  160.0153 C.1     1  UNL1        0.1035
     35 N         141.2513  144.0507  158.9509 N.1     1  UNL1       -0.1907
@<TRIPOS>BOND
     1    19    20    1
     2    20    21    2
     3    20     7    1
     4     7     8   ar
     5     8     9   ar
     6     9    13    1
     7    13    14   ar
     8    14    15   ar
     9    15    16   ar
    10    16    17   ar
    11    17    18   ar
    12     9    10   ar
    13    10    11    2
    14    11     1    1
    15     1     2   ar
    16     2     3   ar
    17     3    22    1
    18    22    23   ar
    19    23    24   ar
    20    24    25   ar
    21    25    26   ar
    22    26    27   ar
    23     3     4   ar
    24     4     5   ar
    25     5    28    1
    26    28    29   ar
    27    29    30   ar
    28    30    31   ar
    29    31    32   ar
    30    32    33   ar
    31     5     6   ar
    32     6    34    1
    33    34    35    3
    34    10    12   ar
    35    12     7   ar
    36    18    13   ar
    37     6     1   ar
    38    27    22   ar
    39    33    28   ar
