@<TRIPOS>MOLECULE
*****
 34 38 0 0 0
SMALL
GASTEIGER

@<TRIPOS>ATOM
      1 N         140.1753  144.5732  161.6630 N.3     1  UNL1       -0.2689
      2 C         141.0984  144.7386  162.8337 C.3     1  UNL1        0.0724
      3 C         140.9631  143.8412  164.0280 C.3     1  UNL1        0.0175
      4 C         139.9047  142.7785  164.0516 C.3     1  UNL1        0.0060
      5 C         138.9817  142.6131  162.8809 C.3     1  UNL1        0.0175
      6 C         139.1170  143.5105  161.6866 C.3     1  UNL1        0.0724
      7 C         140.8278  142.9438  165.2224 C.3     1  UNL1        0.0217
      8 C         140.6925  142.0465  166.4167 C.3     1  UNL1        0.0938
      9 N         139.6342  140.9838  166.4403 N.am    1  UNL1       -0.2748
     10 C         139.4989  140.0864  167.6347 C.2     1  UNL1        0.2680
     11 O         138.4406  139.0237  167.6583 O.2     1  UNL1       -0.2682
     12 C         138.7111  140.8184  165.2696 C.3     1  UNL1        0.0938
     13 C         138.8464  141.7158  164.0752 C.3     1  UNL1        0.0217
     14 C         140.4219  140.2518  168.8054 C.ar    1  UNL1        0.1474
     15 N         141.9027  140.0995  168.6204 N.ar    1  UNL1       -0.2380
     16 C         142.8257  140.2649  169.7911 C.ar    1  UNL1        0.0991
     17 C         142.2680  140.5825  171.1470 C.ar    1  UNL1        0.0219
     18 C         140.7873  140.7348  171.3320 C.ar    1  UNL1        0.0174
     19 C         139.8642  140.5694  170.1612 C.ar    1  UNL1        0.0640
     20 N         138.3835  140.7216  170.3462 N.pl3   1  UNL1       -0.3557
     21 H         138.0175  140.9301  171.2360 H       1  UNL1        0.1424
     22 H         137.7777  140.6131  169.5778 H       1  UNL1        0.1424
     23 C         140.3106  145.4706  160.4686 C.3     1  UNL1        0.1022
     24 C         139.8932  147.2137  154.5429 C.3     1  UNL1        0.0439
     25 C         139.9619  146.8203  155.9888 C.3     1  UNL1        0.1374
     26 C         138.8691  147.8345  156.1540 C.3     1  UNL1        0.0439
     27 C         141.0402  145.8884  155.5213 C.3     1  UNL1        0.0694
     28 C         141.5469  145.1310  156.7128 C.ar    1  UNL1        0.0150
     29 C         142.6063  144.0788  156.8571 C.ar    1  UNL1       -0.0012
     30 C         142.9004  143.4906  158.2052 C.ar    1  UNL1       -0.0004
     31 C         142.1351  143.9545  159.4091 C.ar    1  UNL1        0.0001
     32 C         141.0758  145.0067  159.2648 C.ar    1  UNL1        0.0275
     33 C         140.7817  145.5949  157.9166 C.ar    1  UNL1        0.1316
     34 O         139.8021  146.6390  157.4692 O.3     1  UNL1       -0.4828
@<TRIPOS>BOND
     1    24    25    1
     2    25    26    1
     3    25    27    1
     4    27    28    1
     5    28    29   ar
     6    29    30   ar
     7    30    31   ar
     8    31    32   ar
     9    32    23    1
    10    23     1    1
    11     1     2    1
    12     2     3    1
    13     3     4    1
    14     4     5    1
    15     5     6    1
    16     4     7    1
    17     7     8    1
    18     8     9    1
    19     9    10   am
    20    10    11    2
    21    10    14    1
    22    14    15   ar
    23    15    16   ar
    24    16    17   ar
    25    17    18   ar
    26    18    19   ar
    27    19    20    1
    28     9    12    1
    29    12    13    1
    30    32    33   ar
    31    33    34    1
    32    34    25    1
    33    33    28   ar
    34     6     1    1
    35    19    14   ar
    36    13     4    1
    37    20    21    1
    38    20    22    1
@<TRIPOS>MOLECULE
*****
 34 38 0 0 0
SMALL
GASTEIGER

@<TRIPOS>ATOM
      1 N         138.6451  139.2105  165.7541 N.3     1  UNL1       -0.2689
      2 C         138.0722  140.3881  165.0226 C.3     1  UNL1        0.0724
      3 C         138.1151  140.4334  163.5240 C.3     1  UNL1        0.0175
      4 C         138.7310  139.3011  162.7567 C.3     1  UNL1        0.0060
      5 C         139.3039  138.1235  163.4882 C.3     1  UNL1        0.0175
      6 C         139.2609  138.0782  164.9869 C.3     1  UNL1        0.0724
      7 C         138.1581  140.4787  162.0252 C.3     1  UNL1        0.0217
      8 C         138.2011  140.5240  160.5265 C.3     1  UNL1        0.0938
      9 N         138.8169  139.3917  159.7593 N.am    1  UNL1       -0.2748
     10 C         138.8599  139.4371  158.2606 C.2     1  UNL1        0.2680
     11 O         139.4757  138.3048  157.4933 O.2     1  UNL1       -0.2682
     12 C         139.3898  138.2141  160.4908 C.3     1  UNL1        0.0938
     13 C         139.3468  138.1688  161.9895 C.3     1  UNL1        0.0217
     14 C         138.2870  140.6146  157.5291 C.ar    1  UNL1        0.1474
     15 N         136.8908  140.5523  156.9842 N.ar    1  UNL1       -0.2380
     16 C         136.3180  141.7299  156.2528 C.ar    1  UNL1        0.0991
     17 C         137.1412  142.9699  156.0662 C.ar    1  UNL1        0.0219
     18 C         138.5374  143.0322  156.6111 C.ar    1  UNL1        0.0174
     19 C         139.1102  141.8546  157.3426 C.ar    1  UNL1        0.0640
     20 N         140.5064  141.9169  157.8875 N.pl3   1  UNL1       -0.3557
     21 H         141.0467  142.7307  157.7651 H       1  UNL1        0.1424
     22 H         140.8824  141.1440  158.3676 H       1  UNL1        0.1424
     23 C         138.6021  139.1652  167.2528 C.3     1  UNL1        0.1022
     24 C         143.7000  142.3057  165.6795 C.3     1  UNL1        0.0439
     25 C         142.4636  141.5274  166.0196 C.3     1  UNL1        0.1374
     26 C         142.5702  141.0418  164.6044 C.3     1  UNL1        0.0439
     27 C         142.6155  142.1757  167.3637 C.3     1  UNL1        0.0694
     28 C         141.4952  141.6967  168.2386 C.ar    1  UNL1        0.0150
     29 C         141.1347  141.9983  169.6630 C.ar    1  UNL1       -0.0012
     30 C         139.9301  141.3556  170.2841 C.ar    1  UNL1       -0.0004
     31 C         139.0858  140.4112  169.4807 C.ar    1  UNL1        0.0001
     32 C         139.4463  140.1096  168.0562 C.ar    1  UNL1        0.0275
     33 C         140.6510  140.7523  167.4352 C.ar    1  UNL1        0.1316
     34 O         141.2495  140.6477  166.0638 O.3     1  UNL1       -0.4828
@<TRIPOS>BOND
     1    24    25    1
     2    25    26    1
     3    25    27    1
     4    27    28    1
     5    28    29   ar
     6    29    30   ar
     7    30    31   ar
     8    31    32   ar
     9    32    23    1
    10    23     1    1
    11     1     2    1
    12     2     3    1
    13     3     4    1
    14     4     5    1
    15     5     6    1
    16     4     7    1
    17     7     8    1
    18     8     9    1
    19     9    10   am
    20    10    11    2
    21    10    14    1
    22    14    15   ar
    23    15    16   ar
    24    16    17   ar
    25    17    18   ar
    26    18    19   ar
    27    19    20    1
    28     9    12    1
    29    12    13    1
    30    32    33   ar
    31    33    34    1
    32    34    25    1
    33    33    28   ar
    34     6     1    1
    35    19    14   ar
    36    13     4    1
    37    20    21    1
    38    20    22    1
@<TRIPOS>MOLECULE
*****
 34 38 0 0 0
SMALL
GASTEIGER

@<TRIPOS>ATOM
      1 N         138.9842  141.5297  159.8366 N.3     1  UNL1       -0.2689
      2 C         138.4258  140.2558  159.2750 C.3     1  UNL1        0.0724
      3 C         139.3102  139.3290  158.4948 C.3     1  UNL1        0.0175
      4 C         140.7530  139.6761  158.2761 C.3     1  UNL1        0.0060
      5 C         141.3114  140.9500  158.8377 C.3     1  UNL1        0.0175
      6 C         140.4270  141.8768  159.6179 C.3     1  UNL1        0.0724
      7 C         140.1947  138.4021  157.7146 C.3     1  UNL1        0.0217
      8 C         141.0791  137.4753  156.9343 C.3     1  UNL1        0.0938
      9 N         142.5219  137.8224  156.7157 N.am    1  UNL1       -0.2748
     10 C         143.4064  136.8956  155.9354 C.2     1  UNL1        0.2680
     11 O         144.8492  137.2427  155.7168 O.2     1  UNL1       -0.2682
     12 C         143.0803  139.0963  157.2772 C.3     1  UNL1        0.0938
     13 C         142.1959  140.0232  158.0575 C.3     1  UNL1        0.0217
     14 C         142.8480  135.6217  155.3739 C.ar    1  UNL1        0.1474
     15 N         142.3177  135.5893  153.9711 N.ar    1  UNL1       -0.2380
     16 C         141.7594  134.3154  153.4096 C.ar    1  UNL1        0.0991
     17 C         141.7313  133.0738  154.2508 C.ar    1  UNL1        0.0219
     18 C         142.2616  133.1061  155.6536 C.ar    1  UNL1        0.0174
     19 C         142.8200  134.3801  156.2151 C.ar    1  UNL1        0.0640
     20 N         143.3503  134.4124  157.6179 N.pl3   1  UNL1       -0.3557
     21 H         143.3319  133.5975  158.1700 H       1  UNL1        0.1424
     22 H         143.7168  135.2486  157.9864 H       1  UNL1        0.1424
     23 C         138.0997  142.4565  160.6168 C.3     1  UNL1        0.1022
     24 C         138.8500  137.9846  164.8317 C.3     1  UNL1        0.0439
     25 C         138.6677  139.0369  163.7784 C.3     1  UNL1        0.1374
     26 C         138.6717  137.8704  162.8355 C.3     1  UNL1        0.0439
     27 C         138.7019  139.9834  164.9416 C.3     1  UNL1        0.0694
     28 C         138.5415  141.3769  164.4101 C.ar    1  UNL1        0.0150
     29 C         138.4996  142.7125  165.0917 C.ar    1  UNL1       -0.0012
     30 C         138.3244  143.9627  164.2817 C.ar    1  UNL1       -0.0004
     31 C         138.1911  143.8774  162.7900 C.ar    1  UNL1        0.0001
     32 C         138.2330  142.5419  162.1084 C.ar    1  UNL1        0.0275
     33 C         138.4082  141.2916  162.9185 C.ar    1  UNL1        0.1316
     34 O         138.4862  139.8454  162.5281 O.3     1  UNL1       -0.4828
@<TRIPOS>BOND
     1    24    25    1
     2    25    26    1
     3    25    27    1
     4    27    28    1
     5    28    29   ar
     6    29    30   ar
     7    30    31   ar
     8    31    32   ar
     9    32    23    1
    10    23     1    1
    11     1     2    1
    12     2     3    1
    13     3     4    1
    14     4     5    1
    15     5     6    1
    16     4     7    1
    17     7     8    1
    18     8     9    1
    19     9    10   am
    20    10    11    2
    21    10    14    1
    22    14    15   ar
    23    15    16   ar
    24    16    17   ar
    25    17    18   ar
    26    18    19   ar
    27    19    20    1
    28     9    12    1
    29    12    13    1
    30    32    33   ar
    31    33    34    1
    32    34    25    1
    33    33    28   ar
    34     6     1    1
    35    19    14   ar
    36    13     4    1
    37    20    21    1
    38    20    22    1
@<TRIPOS>MOLECULE
*****
 34 38 0 0 0
SMALL
GASTEIGER

@<TRIPOS>ATOM
      1 N         143.4236  140.3875  164.1309 N.3     1  UNL1       -0.2689
      2 C         143.7858  139.0480  163.5613 C.3     1  UNL1        0.0724
      3 C         143.4820  138.7365  162.1259 C.3     1  UNL1        0.0175
      4 C         142.8160  139.7645  161.2600 C.3     1  UNL1        0.0060
      5 C         142.4539  141.1040  161.8296 C.3     1  UNL1        0.0175
      6 C         142.7577  141.4155  163.2650 C.3     1  UNL1        0.0724
      7 C         143.1781  138.4249  160.6903 C.3     1  UNL1        0.0217
      8 C         142.8743  138.1133  159.2549 C.3     1  UNL1        0.0938
      9 N         142.2084  139.1413  158.3890 N.am    1  UNL1       -0.2748
     10 C         141.9046  138.8297  156.9535 C.2     1  UNL1        0.2680
     11 O         141.2386  139.8577  156.0876 O.2     1  UNL1       -0.2682
     12 C         141.8462  140.4808  158.9586 C.3     1  UNL1        0.0938
     13 C         142.1501  140.7924  160.3941 C.3     1  UNL1        0.0217
     14 C         142.2667  137.4902  156.3839 C.ar    1  UNL1        0.1474
     15 N         143.7018  137.1596  156.0986 N.ar    1  UNL1       -0.2380
     16 C         144.0639  135.8201  155.5291 C.ar    1  UNL1        0.0991
     17 C         142.9910  134.8110  155.2447 C.ar    1  UNL1        0.0219
     18 C         141.5559  135.1416  155.5299 C.ar    1  UNL1        0.0174
     19 C         141.1938  136.4813  156.0995 C.ar    1  UNL1        0.0640
     20 N         139.7588  136.8119  156.3848 N.pl3   1  UNL1       -0.3557
     21 H         139.0546  136.1497  156.1981 H       1  UNL1        0.1424
     22 H         139.5211  137.6911  156.7586 H       1  UNL1        0.1424
     23 C         143.7274  140.6991  165.5664 C.3     1  UNL1        0.1022
     24 C         138.0976  138.1910  166.1501 C.3     1  UNL1        0.0439
     25 C         139.4701  138.7703  165.9753 C.3     1  UNL1        0.1374
     26 C         139.5895  137.7514  164.8810 C.3     1  UNL1        0.0439
     27 C         139.0639  139.6681  167.1061 C.3     1  UNL1        0.0694
     28 C         140.2103  140.5893  167.4014 C.ar    1  UNL1        0.0150
     29 C         140.3831  141.6848  168.4114 C.ar    1  UNL1       -0.0012
     30 C         141.6707  142.4517  168.4730 C.ar    1  UNL1       -0.0004
     31 C         142.7855  142.1232  167.5247 C.ar    1  UNL1        0.0001
     32 C         142.6127  141.0277  166.5147 C.ar    1  UNL1        0.0275
     33 C         141.3250  140.2607  166.4531 C.ar    1  UNL1        0.1316
     34 O         140.8676  139.1365  165.5717 O.3     1  UNL1       -0.4828
@<TRIPOS>BOND
     1    24    25    1
     2    25    26    1
     3    25    27    1
     4    27    28    1
     5    28    29   ar
     6    29    30   ar
     7    30    31   ar
     8    31    32   ar
     9    32    23    1
    10    23     1    1
    11     1     2    1
    12     2     3    1
    13     3     4    1
    14     4     5    1
    15     5     6    1
    16     4     7    1
    17     7     8    1
    18     8     9    1
    19     9    10   am
    20    10    11    2
    21    10    14    1
    22    14    15   ar
    23    15    16   ar
    24    16    17   ar
    25    17    18   ar
    26    18    19   ar
    27    19    20    1
    28     9    12    1
    29    12    13    1
    30    32    33   ar
    31    33    34    1
    32    34    25    1
    33    33    28   ar
    34     6     1    1
    35    19    14   ar
    36    13     4    1
    37    20    21    1
    38    20    22    1
@<TRIPOS>MOLECULE
*****
 34 38 0 0 0
SMALL
GASTEIGER

@<TRIPOS>ATOM
      1 N         138.4942  139.1106  165.1571 N.3     1  UNL1       -0.2689
      2 C         139.1760  137.9768  164.4504 C.3     1  UNL1        0.0724
      3 C         139.3553  138.0203  162.9618 C.3     1  UNL1        0.0175
      4 C         138.8527  139.1976  162.1799 C.3     1  UNL1        0.0060
      5 C         138.1709  140.3314  162.8866 C.3     1  UNL1        0.0175
      6 C         137.9916  140.2879  164.3752 C.3     1  UNL1        0.0724
      7 C         139.5346  138.0637  161.4731 C.3     1  UNL1        0.0217
      8 C         139.7139  138.1072  159.9845 C.3     1  UNL1        0.0938
      9 N         139.2113  139.2845  159.2027 N.am    1  UNL1       -0.2748
     10 C         139.3906  139.3280  157.7140 C.2     1  UNL1        0.2680
     11 O         138.8880  140.5053  156.9321 O.2     1  UNL1       -0.2682
     12 C         138.5294  140.4184  159.9094 C.3     1  UNL1        0.0938
     13 C         138.3501  140.3749  161.3980 C.3     1  UNL1        0.0217
     14 C         140.0724  138.1942  157.0073 C.ar    1  UNL1        0.1474
     15 N         141.4395  137.7541  157.4404 N.ar    1  UNL1       -0.2380
     16 C         142.1213  136.6203  156.7337 C.ar    1  UNL1        0.0991
     17 C         141.4361  135.9264  155.5938 C.ar    1  UNL1        0.0219
     18 C         140.0691  136.3665  155.1607 C.ar    1  UNL1        0.0174
     19 C         139.3872  137.5004  155.8675 C.ar    1  UNL1        0.0640
     20 N         138.0202  137.9404  155.4344 N.pl3   1  UNL1       -0.3557
     21 H         137.5705  137.4851  154.6863 H       1  UNL1        0.1424
     22 H         137.5727  138.6846  155.8983 H       1  UNL1        0.1424
     23 C         138.3149  139.0671  166.6457 C.3     1  UNL1        0.1022
     24 C         143.6856  141.8638  165.3569 C.3     1  UNL1        0.0439
     25 C         142.3813  141.1737  165.6263 C.3     1  UNL1        0.1374
     26 C         142.4365  140.8393  164.1651 C.3     1  UNL1        0.0439
     27 C         142.5987  141.6523  167.0312 C.3     1  UNL1        0.0694
     28 C         141.4403  141.1881  167.8635 C.ar    1  UNL1        0.0150
     29 C         141.1148  141.3636  169.3172 C.ar    1  UNL1       -0.0012
     30 C         139.8560  140.7736  169.8804 C.ar    1  UNL1       -0.0004
     31 C         138.9226  140.0081  168.9899 C.ar    1  UNL1        0.0001
     32 C         139.2481  139.8326  167.5362 C.ar    1  UNL1        0.0275
     33 C         140.5070  140.4227  166.9730 C.ar    1  UNL1        0.1316
     34 O         141.0885  140.4137  165.5904 O.3     1  UNL1       -0.4828
@<TRIPOS>BOND
     1    24    25    1
     2    25    26    1
     3    25    27    1
     4    27    28    1
     5    28    29   ar
     6    29    30   ar
     7    30    31   ar
     8    31    32   ar
     9    32    23    1
    10    23     1    1
    11     1     2    1
    12     2     3    1
    13     3     4    1
    14     4     5    1
    15     5     6    1
    16     4     7    1
    17     7     8    1
    18     8     9    1
    19     9    10   am
    20    10    11    2
    21    10    14    1
    22    14    15   ar
    23    15    16   ar
    24    16    17   ar
    25    17    18   ar
    26    18    19   ar
    27    19    20    1
    28     9    12    1
    29    12    13    1
    30    32    33   ar
    31    33    34    1
    32    34    25    1
    33    33    28   ar
    34     6     1    1
    35    19    14   ar
    36    13     4    1
    37    20    21    1
    38    20    22    1
@<TRIPOS>MOLECULE
*****
 34 38 0 0 0
SMALL
GASTEIGER

@<TRIPOS>ATOM
      1 N         143.6877  137.8115  156.3627 N.3     1  UNL1       -0.2689
      2 C         142.7761  137.7232  157.5506 C.3     1  UNL1        0.0724
      3 C         142.2904  138.9757  158.2178 C.3     1  UNL1        0.0175
      4 C         142.7162  140.3165  157.6971 C.3     1  UNL1        0.0060
      5 C         143.6278  140.4047  156.5092 C.3     1  UNL1        0.0175
      6 C         144.1135  139.1522  155.8420 C.3     1  UNL1        0.0724
      7 C         141.8046  140.2283  158.8851 C.3     1  UNL1        0.0217
      8 C         141.3188  141.4808  159.5523 C.3     1  UNL1        0.0938
      9 N         141.7446  142.8215  159.0316 N.am    1  UNL1       -0.2748
     10 C         141.2588  144.0740  159.6989 C.2     1  UNL1        0.2680
     11 O         141.6846  145.4148  159.1783 O.2     1  UNL1       -0.2682
     12 C         142.6562  142.9097  157.8437 C.3     1  UNL1        0.0938
     13 C         143.1420  141.6572  157.1764 C.3     1  UNL1        0.0217
     14 C         140.3472  143.9858  160.8869 C.ar    1  UNL1        0.1474
     15 N         138.9840  143.3769  160.7426 N.ar    1  UNL1       -0.2380
     16 C         138.0724  143.2886  161.9305 C.ar    1  UNL1        0.0991
     17 C         138.5240  143.8093  163.2628 C.ar    1  UNL1        0.0219
     18 C         139.8873  144.4183  163.4071 C.ar    1  UNL1        0.0174
     19 C         140.7989  144.5065  162.2191 C.ar    1  UNL1        0.0640
     20 N         142.1621  145.1155  162.3634 N.pl3   1  UNL1       -0.3557
     21 H         142.4585  145.4572  163.2378 H       1  UNL1        0.1424
     22 H         142.7604  145.1734  161.5837 H       1  UNL1        0.1424
     23 C         144.1735  136.5589  155.6954 C.3     1  UNL1        0.1022
     24 C         144.2437  130.7182  157.7467 C.3     1  UNL1        0.0439
     25 C         144.2643  132.1412  157.2725 C.3     1  UNL1        0.1374
     26 C         145.5177  132.2307  158.0916 C.3     1  UNL1        0.0439
     27 C         143.0066  131.7541  156.5526 C.3     1  UNL1        0.0694
     28 C         142.5119  132.9566  155.8046 C.ar    1  UNL1        0.0150
     29 C         141.3176  133.1684  154.9222 C.ar    1  UNL1       -0.0012
     30 C         141.0752  134.5104  154.2975 C.ar    1  UNL1       -0.0004
     31 C         142.0272  135.6406  154.5552 C.ar    1  UNL1        0.0001
     32 C         143.2215  135.4288  155.4376 C.ar    1  UNL1        0.0275
     33 C         143.4639  134.0867  156.0624 C.ar    1  UNL1        0.1316
     34 O         144.5469  133.5828  156.9695 O.3     1  UNL1       -0.4828
@<TRIPOS>BOND
     1    24    25    1
     2    25    26    1
     3    25    27    1
     4    27    28    1
     5    28    29   ar
     6    29    30   ar
     7    30    31   ar
     8    31    32   ar
     9    32    23    1
    10    23     1    1
    11     1     2    1
    12     2     3    1
    13     3     4    1
    14     4     5    1
    15     5     6    1
    16     4     7    1
    17     7     8    1
    18     8     9    1
    19     9    10   am
    20    10    11    2
    21    10    14    1
    22    14    15   ar
    23    15    16   ar
    24    16    17   ar
    25    17    18   ar
    26    18    19   ar
    27    19    20    1
    28     9    12    1
    29    12    13    1
    30    32    33   ar
    31    33    34    1
    32    34    25    1
    33    33    28   ar
    34     6     1    1
    35    19    14   ar
    36    13     4    1
    37    20    21    1
    38    20    22    1
@<TRIPOS>MOLECULE
*****
 34 38 0 0 0
SMALL
GASTEIGER

@<TRIPOS>ATOM
      1 N         142.2677  137.6233  157.5680 N.3     1  UNL1       -0.2689
      2 C         142.6974  137.4476  158.9943 C.3     1  UNL1        0.0724
      3 C         141.8765  138.0367  160.1029 C.3     1  UNL1        0.0175
      4 C         140.6259  138.8016  159.7852 C.3     1  UNL1        0.0060
      5 C         140.1961  138.9773  158.3589 C.3     1  UNL1        0.0175
      6 C         141.0170  138.3881  157.2503 C.3     1  UNL1        0.0724
      7 C         141.0556  138.6259  161.2116 C.3     1  UNL1        0.0217
      8 C         140.2347  139.2150  162.3202 C.3     1  UNL1        0.0938
      9 N         138.9840  139.9799  162.0024 N.am    1  UNL1       -0.2748
     10 C         138.1631  140.5690  163.1111 C.2     1  UNL1        0.2680
     11 O         136.9125  141.3339  162.7933 O.2     1  UNL1       -0.2682
     12 C         138.5543  140.1556  160.5761 C.3     1  UNL1        0.0938
     13 C         139.3752  139.5664  159.4674 C.3     1  UNL1        0.0217
     14 C         138.5928  140.3933  164.5374 C.ar    1  UNL1        0.1474
     15 N         138.1094  139.2127  165.3263 N.ar    1  UNL1       -0.2380
     16 C         138.5391  139.0370  166.7527 C.ar    1  UNL1        0.0991
     17 C         139.4523  140.0419  167.3901 C.ar    1  UNL1        0.0219
     18 C         139.9357  141.2226  166.6012 C.ar    1  UNL1        0.0174
     19 C         139.5060  141.3982  165.1748 C.ar    1  UNL1        0.0640
     20 N         139.9894  142.5788  164.3858 N.pl3   1  UNL1       -0.3557
     21 H         140.5887  143.2384  164.8042 H       1  UNL1        0.1424
     22 H         139.7074  142.6942  163.4497 H       1  UNL1        0.1424
     23 C         143.0886  137.0341  156.4594 C.3     1  UNL1        0.1022
     24 C         144.5376  131.0623  157.2106 C.3     1  UNL1        0.0439
     25 C         144.2146  132.5195  157.0618 C.3     1  UNL1        0.1374
     26 C         145.1910  132.6896  158.1877 C.3     1  UNL1        0.0439
     27 C         143.3057  132.0448  155.9670 C.3     1  UNL1        0.0694
     28 C         142.6251  133.2442  155.3769 C.ar    1  UNL1        0.0150
     29 C         141.6239  133.3862  154.2690 C.ar    1  UNL1       -0.0012
     30 C         141.1109  134.7442  153.8913 C.ar    1  UNL1       -0.0004
     31 C         141.5991  135.9602  154.6214 C.ar    1  UNL1        0.0001
     32 C         142.6003  135.8182  155.7292 C.ar    1  UNL1        0.0275
     33 C         143.1134  134.4601  156.1070 C.ar    1  UNL1        0.1316
     34 O         144.0957  134.0123  157.1483 O.3     1  UNL1       -0.4828
@<TRIPOS>BOND
     1    24    25    1
     2    25    26    1
     3    25    27    1
     4    27    28    1
     5    28    29   ar
     6    29    30   ar
     7    30    31   ar
     8    31    32   ar
     9    32    23    1
    10    23     1    1
    11     1     2    1
    12     2     3    1
    13     3     4    1
    14     4     5    1
    15     5     6    1
    16     4     7    1
    17     7     8    1
    18     8     9    1
    19     9    10   am
    20    10    11    2
    21    10    14    1
    22    14    15   ar
    23    15    16   ar
    24    16    17   ar
    25    17    18   ar
    26    18    19   ar
    27    19    20    1
    28     9    12    1
    29    12    13    1
    30    32    33   ar
    31    33    34    1
    32    34    25    1
    33    33    28   ar
    34     6     1    1
    35    19    14   ar
    36    13     4    1
    37    20    21    1
    38    20    22    1
@<TRIPOS>MOLECULE
*****
 34 38 0 0 0
SMALL
GASTEIGER

@<TRIPOS>ATOM
      1 N         140.8283  138.9235  160.7466 N.3     1  UNL1       -0.2689
      2 C         140.1099  139.9896  161.5196 C.3     1  UNL1        0.0724
      3 C         140.3717  140.1571  162.9870 C.3     1  UNL1        0.0175
      4 C         141.3517  139.2587  163.6814 C.3     1  UNL1        0.0060
      5 C         142.0701  138.1927  162.9084 C.3     1  UNL1        0.0175
      6 C         141.8083  138.0251  161.4410 C.3     1  UNL1        0.0724
      7 C         140.6334  140.3248  164.4545 C.3     1  UNL1        0.0217
      8 C         140.8951  140.4924  165.9219 C.3     1  UNL1        0.0938
      9 N         141.8752  139.5939  166.6163 N.am    1  UNL1       -0.2748
     10 C         142.1369  139.7616  168.0838 C.2     1  UNL1        0.2680
     11 O         143.1170  138.8631  168.7783 O.2     1  UNL1       -0.2682
     12 C         142.5936  138.5279  165.8434 C.3     1  UNL1        0.0938
     13 C         142.3318  138.3603  164.3759 C.3     1  UNL1        0.0217
     14 C         141.4186  140.8276  168.8568 C.ar    1  UNL1        0.1474
     15 N         140.0929  140.5291  169.4919 N.ar    1  UNL1       -0.2380
     16 C         139.3745  141.5951  170.2649 C.ar    1  UNL1        0.0991
     17 C         139.9819  142.9597  170.4028 C.ar    1  UNL1        0.0219
     18 C         141.3076  143.2583  169.7677 C.ar    1  UNL1        0.0174
     19 C         142.0260  142.1921  168.9947 C.ar    1  UNL1        0.0640
     20 N         143.3517  142.4907  168.3596 N.pl3   1  UNL1       -0.3557
     21 H         143.7504  143.3863  168.4501 H       1  UNL1        0.1424
     22 H         143.8232  141.7910  167.8522 H       1  UNL1        0.1424
     23 C         140.5665  138.7559  159.2791 C.3     1  UNL1        0.1022
     24 C         144.0983  135.5410  155.3398 C.3     1  UNL1        0.0439
     25 C         143.2250  136.2815  156.3088 C.3     1  UNL1        0.1374
     26 C         142.7429  134.9104  156.6796 C.3     1  UNL1        0.0439
     27 C         143.8896  137.4979  155.7355 C.3     1  UNL1        0.0694
     28 C         143.3264  138.7035  156.4277 C.ar    1  UNL1        0.0150
     29 C         143.6049  140.1696  156.2758 C.ar    1  UNL1       -0.0012
     30 C         142.8706  141.1644  157.1249 C.ar    1  UNL1       -0.0004
     31 C         141.8578  140.6932  158.1261 C.ar    1  UNL1        0.0001
     32 C         141.5793  139.2271  158.2780 C.ar    1  UNL1        0.0275
     33 C         142.3136  138.2323  157.4288 C.ar    1  UNL1        0.1316
     34 O         142.2509  136.7354  157.3554 O.3     1  UNL1       -0.4828
@<TRIPOS>BOND
     1    24    25    1
     2    25    26    1
     3    25    27    1
     4    27    28    1
     5    28    29   ar
     6    29    30   ar
     7    30    31   ar
     8    31    32   ar
     9    32    23    1
    10    23     1    1
    11     1     2    1
    12     2     3    1
    13     3     4    1
    14     4     5    1
    15     5     6    1
    16     4     7    1
    17     7     8    1
    18     8     9    1
    19     9    10   am
    20    10    11    2
    21    10    14    1
    22    14    15   ar
    23    15    16   ar
    24    16    17   ar
    25    17    18   ar
    26    18    19   ar
    27    19    20    1
    28     9    12    1
    29    12    13    1
    30    32    33   ar
    31    33    34    1
    32    34    25    1
    33    33    28   ar
    34     6     1    1
    35    19    14   ar
    36    13     4    1
    37    20    21    1
    38    20    22    1
@<TRIPOS>MOLECULE
*****
 34 38 0 0 0
SMALL
GASTEIGER

@<TRIPOS>ATOM
      1 N         143.6460  139.9811  163.6171 N.3     1  UNL1       -0.2689
      2 C         143.0487  138.7037  163.1058 C.3     1  UNL1        0.0724
      3 C         142.9272  138.4711  161.6290 C.3     1  UNL1        0.0175
      4 C         143.4029  139.5158  160.6635 C.3     1  UNL1        0.0060
      5 C         144.0002  140.7932  161.1748 C.3     1  UNL1        0.0175
      6 C         144.1217  141.0259  162.6516 C.3     1  UNL1        0.0724
      7 C         142.8057  138.2384  160.1521 C.3     1  UNL1        0.0217
      8 C         142.6841  138.0057  158.6753 C.3     1  UNL1        0.0938
      9 N         143.1599  139.0505  157.7098 N.am    1  UNL1       -0.2748
     10 C         143.0383  138.8177  156.2329 C.2     1  UNL1        0.2680
     11 O         143.5140  139.8625  155.2674 O.2     1  UNL1       -0.2682
     12 C         143.7571  140.3279  158.2211 C.3     1  UNL1        0.0938
     13 C         143.8786  140.5606  159.6980 C.3     1  UNL1        0.0217
     14 C         142.4411  137.5403  155.7216 C.ar    1  UNL1        0.1474
     15 N         140.9508  137.3827  155.6560 N.ar    1  UNL1       -0.2380
     16 C         140.3536  136.1053  155.1447 C.ar    1  UNL1        0.0991
     17 C         141.2466  134.9854  154.6989 C.ar    1  UNL1        0.0219
     18 C         142.7368  135.1431  154.7645 C.ar    1  UNL1        0.0174
     19 C         143.3341  136.4206  155.2758 C.ar    1  UNL1        0.0640
     20 N         144.8243  136.5783  155.3414 N.pl3   1  UNL1       -0.3557
     21 H         145.4104  135.8434  155.0488 H       1  UNL1        0.1424
     22 H         145.2163  137.4167  155.6770 H       1  UNL1        0.1424
     23 C         143.7675  140.2138  165.0940 C.3     1  UNL1        0.1022
     24 C         139.5941  144.7605  164.6070 C.3     1  UNL1        0.0439
     25 C         140.6271  143.6761  164.6900 C.3     1  UNL1        0.1374
     26 C         141.2334  144.3803  163.5125 C.3     1  UNL1        0.0439
     27 C         139.8049  143.1986  165.8502 C.3     1  UNL1        0.0694
     28 C         140.4565  141.9663  166.4041 C.ar    1  UNL1        0.0150
     29 C         140.0927  141.0661  167.5475 C.ar    1  UNL1       -0.0012
     30 C         140.9538  139.8819  167.8731 C.ar    1  UNL1       -0.0004
     31 C         142.1788  139.5978  167.0553 C.ar    1  UNL1        0.0001
     32 C         142.5426  140.4979  165.9119 C.ar    1  UNL1        0.0275
     33 C         141.6814  141.6822  165.5863 C.ar    1  UNL1        0.1316
     34 O         141.7869  142.7389  164.5269 O.3     1  UNL1       -0.4828
@<TRIPOS>BOND
     1    24    25    1
     2    25    26    1
     3    25    27    1
     4    27    28    1
     5    28    29   ar
     6    29    30   ar
     7    30    31   ar
     8    31    32   ar
     9    32    23    1
    10    23     1    1
    11     1     2    1
    12     2     3    1
    13     3     4    1
    14     4     5    1
    15     5     6    1
    16     4     7    1
    17     7     8    1
    18     8     9    1
    19     9    10   am
    20    10    11    2
    21    10    14    1
    22    14    15   ar
    23    15    16   ar
    24    16    17   ar
    25    17    18   ar
    26    18    19   ar
    27    19    20    1
    28     9    12    1
    29    12    13    1
    30    32    33   ar
    31    33    34    1
    32    34    25    1
    33    33    28   ar
    34     6     1    1
    35    19    14   ar
    36    13     4    1
    37    20    21    1
    38    20    22    1
