@<TRIPOS>MOLECULE
*****
 35 39 0 0 0
SMALL
GASTEIGER

@<TRIPOS>ATOM
      1 C         138.8437  138.5744  164.9661 C.ar    1  UNL1        0.0536
      2 C         138.1326  139.4736  163.9988 C.ar    1  UNL1        0.0042
      3 C         138.4369  139.3880  162.5325 C.ar    1  UNL1       -0.0041
      4 C         139.4524  138.4032  162.0334 C.ar    1  UNL1       -0.0208
      5 C         140.1635  137.5040  163.0009 C.ar    1  UNL1       -0.0041
      6 C         139.8592  137.5896  164.4672 C.ar    1  UNL1        0.0042
      7 C         140.4899  142.4635  169.2275 C.3     1  UNL1        0.1025
      8 C         139.6527  141.2230  169.1262 C.3     1  UNL1        0.0327
      9 C         138.8971  139.9918  168.7222 C.3     1  UNL1        0.0943
     10 N         139.1122  139.7771  167.2533 N.am    1  UNL1       -0.2761
     11 C         138.5394  138.6600  166.4324 C.2     1  UNL1        0.2490
     12 O         137.6622  137.6285  167.0778 O.2     1  UNL1       -0.2699
     13 C         140.0008  140.8755  166.7495 C.3     1  UNL1        0.0943
     14 C         140.3349  141.7692  167.9070 C.3     1  UNL1        0.0327
     15 C         141.0628  143.5806  170.0484 C.2     1  UNL1        0.3165
     16 O         140.2435  144.8072  170.3215 O.2     1  UNL1       -0.2501
     17 O         142.4548  143.4712  170.5963 O.3     1  UNL1       -0.4485
     18 C         143.3563  141.0727  170.1670 C.3     1  UNL1        0.0513
     19 C         143.4469  142.5534  169.9455 C.3     1  UNL1        0.2086
     20 C         139.7567  138.3176  160.5671 C.3     1  UNL1        0.0420
     21 C         140.9314  139.0585  160.0005 C.3     1  UNL1        0.0585
     22 C         141.4652  138.9295  158.6046 C.3     1  UNL1        0.0175
     23 C         142.6422  139.8498  158.4716 C.3     1  UNL1        0.0199
     24 C         142.8359  140.5475  159.7852 C.3     1  UNL1        0.0855
     25 N         141.7785  140.0585  160.7301 N.3     1  UNL1       -0.2971
     26 H         141.2017  140.8410  161.0391 H       1  UNL1        0.1233
     27 C         143.9000  141.5571  160.0989 C.3     1  UNL1        0.1470
     28 O         144.6403  142.2371  158.9856 O.3     1  UNL1       -0.3787
     29 H         145.2885  142.8550  159.3584 H       1  UNL1        0.2108
     30 C         144.2239  141.8866  161.5260 C.ar    1  UNL1        0.0055
     31 C         144.8696  140.8574  162.4055 C.ar    1  UNL1       -0.0019
     32 C         145.1934  141.1870  163.8326 C.ar    1  UNL1       -0.0002
     33 C         144.8714  142.5458  164.3801 C.ar    1  UNL1       -0.0000
     34 C         144.2257  143.5751  163.5006 C.ar    1  UNL1       -0.0002
     35 C         143.9019  143.2455  162.0735 C.ar    1  UNL1       -0.0019
@<TRIPOS>BOND
     1    18    19    1
     2    19    17    1
     3    17    15    1
     4    15    16    2
     5     7    15    1
     6     7     8    1
     7     8     9    1
     8     9    10    1
     9    10    11   am
    10    11    12    2
    11    11     1    1
    12     1     2   ar
    13     2     3   ar
    14     3     4   ar
    15     4    20    1
    16    21    20    1
    17    21    22    1
    18    22    23    1
    19    24    23    1
    20    24    27    1
    21    27    28    1
    22    27    30    1
    23    30    31   ar
    24    31    32   ar
    25    32    33   ar
    26    33    34   ar
    27    34    35   ar
    28    24    25    1
    29     4     5   ar
    30     5     6   ar
    31    10    13    1
    32    14    13    1
    33    14     7    1
    34    14     8    1
    35     6     1   ar
    36    25    21    1
    37    35    30   ar
    38    28    29    1
    39    25    26    1
@<TRIPOS>MOLECULE
*****
 35 39 0 0 0
SMALL
GASTEIGER

@<TRIPOS>ATOM
      1 C         140.2589  139.1068  163.7444 C.ar    1  UNL1        0.0536
      2 C         139.6114  140.0978  162.8233 C.ar    1  UNL1        0.0042
      3 C         140.2265  140.3934  161.4875 C.ar    1  UNL1       -0.0041
      4 C         141.4893  139.6980  161.0729 C.ar    1  UNL1       -0.0208
      5 C         142.1369  138.7070  161.9942 C.ar    1  UNL1       -0.0041
      6 C         141.5217  138.4114  163.3299 C.ar    1  UNL1        0.0042
      7 C         140.2591  142.0810  168.9549 C.3     1  UNL1        0.1025
      8 C         139.6953  140.8014  168.4120 C.3     1  UNL1        0.0327
      9 C         139.2717  139.6112  167.6033 C.3     1  UNL1        0.0943
     10 N         139.8245  139.7715  166.2182 N.am    1  UNL1       -0.2761
     11 C         139.6438  138.8112  165.0802 C.2     1  UNL1        0.2490
     12 O         138.8480  137.5552  165.2779 O.2     1  UNL1       -0.2699
     13 C         140.5898  141.0607  166.1708 C.3     1  UNL1        0.0943
     14 C         140.5099  141.6973  167.5267 C.3     1  UNL1        0.0327
     15 C         140.4398  143.0414  170.0929 C.2     1  UNL1        0.3165
     16 O         139.3223  143.2682  171.0675 O.2     1  UNL1       -0.2501
     17 O         141.7380  143.7749  170.2564 O.3     1  UNL1       -0.4485
     18 C         143.9219  142.4930  169.6756 C.3     1  UNL1        0.0513
     19 C         142.9667  143.0358  170.6969 C.3     1  UNL1        0.2086
     20 C         142.1044  139.9937  159.7372 C.3     1  UNL1        0.0420
     21 C         142.0731  138.9591  158.6516 C.3     1  UNL1        0.0585
     22 C         140.8416  138.3863  158.0149 C.3     1  UNL1        0.0175
     23 C         141.2751  137.3888  156.9819 C.3     1  UNL1        0.0199
     24 C         142.7745  137.3452  156.9801 C.3     1  UNL1        0.0855
     25 N         143.2676  138.3157  158.0120 N.3     1  UNL1       -0.2971
     26 H         143.8481  139.0274  157.5684 H       1  UNL1        0.1233
     27 C         143.6304  136.4825  156.1008 C.3     1  UNL1        0.1470
     28 O         144.8327  137.0657  155.4195 O.3     1  UNL1       -0.3787
     29 H         145.2712  136.3787  154.8934 H       1  UNL1        0.2108
     30 C         143.2838  135.0365  155.9027 C.ar    1  UNL1        0.0055
     31 C         143.3856  134.0767  157.0509 C.ar    1  UNL1       -0.0019
     32 C         143.0391  132.6308  156.8528 C.ar    1  UNL1       -0.0002
     33 C         142.5907  132.1447  155.5064 C.ar    1  UNL1       -0.0000
     34 C         142.4889  133.1045  154.3582 C.ar    1  UNL1       -0.0002
     35 C         142.8355  134.5504  154.5564 C.ar    1  UNL1       -0.0019
@<TRIPOS>BOND
     1    18    19    1
     2    19    17    1
     3    17    15    1
     4    15    16    2
     5     7    15    1
     6     7     8    1
     7     8     9    1
     8     9    10    1
     9    10    11   am
    10    11    12    2
    11    11     1    1
    12     1     2   ar
    13     2     3   ar
    14     3     4   ar
    15     4    20    1
    16    21    20    1
    17    21    22    1
    18    22    23    1
    19    24    23    1
    20    24    27    1
    21    27    28    1
    22    27    30    1
    23    30    31   ar
    24    31    32   ar
    25    32    33   ar
    26    33    34   ar
    27    34    35   ar
    28    24    25    1
    29     4     5   ar
    30     5     6   ar
    31    10    13    1
    32    14    13    1
    33    14     7    1
    34    14     8    1
    35     6     1   ar
    36    25    21    1
    37    35    30   ar
    38    28    29    1
    39    25    26    1
@<TRIPOS>MOLECULE
*****
 35 39 0 0 0
SMALL
GASTEIGER

@<TRIPOS>ATOM
      1 C         143.8892  139.2499  164.5723 C.ar    1  UNL1        0.0536
      2 C         144.8148  140.3479  164.1393 C.ar    1  UNL1        0.0042
      3 C         144.8081  140.8162  162.7143 C.ar    1  UNL1       -0.0041
      4 C         143.8758  140.1864  161.7222 C.ar    1  UNL1       -0.0208
      5 C         142.9502  139.0883  162.1553 C.ar    1  UNL1       -0.0041
      6 C         142.9569  138.6200  163.5803 C.ar    1  UNL1        0.0042
      7 C         140.3048  140.4171  169.2397 C.3     1  UNL1        0.1025
      8 C         141.5265  139.5921  168.9628 C.3     1  UNL1        0.0327
      9 C         142.7202  138.8824  168.3958 C.3     1  UNL1        0.0943
     10 N         142.8412  139.2619  166.9496 N.am    1  UNL1       -0.2761
     11 C         143.8959  138.7816  165.9973 C.2     1  UNL1        0.2490
     12 O         144.9573  137.8329  166.4700 O.2     1  UNL1       -0.2699
     13 C         141.7224  140.2061  166.6229 C.3     1  UNL1        0.0943
     14 C         140.9099  140.4102  167.8672 C.3     1  UNL1        0.0327
     15 C         139.2501  140.8975  170.1920 C.2     1  UNL1        0.3165
     16 O         138.1117  139.9956  170.5675 O.2     1  UNL1       -0.2501
     17 O         139.3337  142.2796  170.7688 O.3     1  UNL1       -0.4485
     18 C         141.6069  143.3804  170.1598 C.3     1  UNL1        0.0513
     19 C         140.1110  143.3448  170.0539 C.3     1  UNL1        0.2086
     20 C         143.8691  140.6547  160.2973 C.3     1  UNL1        0.0420
     21 C         142.9758  141.7866  159.8840 C.3     1  UNL1        0.0585
     22 C         142.9297  142.4229  158.5264 C.3     1  UNL1        0.0175
     23 C         141.8971  143.5104  158.5591 C.3     1  UNL1        0.0199
     24 C         141.3051  143.5463  159.9368 C.3     1  UNL1        0.0855
     25 N         141.9717  142.4809  160.7556 N.3     1  UNL1       -0.2971
     26 H         141.2764  141.8108  161.0840 H       1  UNL1        0.1233
     27 C         140.2344  144.4831  160.4122 C.3     1  UNL1        0.1470
     28 O         139.8553  145.6727  159.5810 O.3     1  UNL1       -0.3787
     29 H         139.1532  146.1698  160.0291 H       1  UNL1        0.2108
     30 C         139.5427  144.2301  161.7190 C.ar    1  UNL1        0.0055
     31 C         139.9179  145.0274  162.9329 C.ar    1  UNL1       -0.0019
     32 C         139.2262  144.7744  164.2396 C.ar    1  UNL1       -0.0002
     33 C         138.1593  143.7241  164.3325 C.ar    1  UNL1       -0.0000
     34 C         137.7841  142.9268  163.1186 C.ar    1  UNL1       -0.0002
     35 C         138.4758  143.1798  161.8119 C.ar    1  UNL1       -0.0019
@<TRIPOS>BOND
     1    18    19    1
     2    19    17    1
     3    17    15    1
     4    15    16    2
     5     7    15    1
     6     7     8    1
     7     8     9    1
     8     9    10    1
     9    10    11   am
    10    11    12    2
    11    11     1    1
    12     1     2   ar
    13     2     3   ar
    14     3     4   ar
    15     4    20    1
    16    21    20    1
    17    21    22    1
    18    22    23    1
    19    24    23    1
    20    24    27    1
    21    27    28    1
    22    27    30    1
    23    30    31   ar
    24    31    32   ar
    25    32    33   ar
    26    33    34   ar
    27    34    35   ar
    28    24    25    1
    29     4     5   ar
    30     5     6   ar
    31    10    13    1
    32    14    13    1
    33    14     7    1
    34    14     8    1
    35     6     1   ar
    36    25    21    1
    37    35    30   ar
    38    28    29    1
    39    25    26    1
@<TRIPOS>MOLECULE
*****
 35 39 0 0 0
SMALL
GASTEIGER

@<TRIPOS>ATOM
      1 C         143.1825  138.4917  164.5950 C.ar    1  UNL1        0.0536
      2 C         142.0041  137.7470  164.0413 C.ar    1  UNL1        0.0042
      3 C         141.7340  137.7608  162.5659 C.ar    1  UNL1       -0.0041
      4 C         142.6423  138.5194  161.6442 C.ar    1  UNL1       -0.0208
      5 C         143.8208  139.2641  162.1980 C.ar    1  UNL1       -0.0041
      6 C         144.0910  139.2503  163.6734 C.ar    1  UNL1        0.0042
      7 C         140.0778  140.5368  169.3038 C.3     1  UNL1        0.1025
      8 C         141.3783  139.8306  169.0591 C.3     1  UNL1        0.0327
      9 C         142.5942  139.1426  168.5130 C.3     1  UNL1        0.0943
     10 N         142.4615  139.0826  167.0201 N.am    1  UNL1       -0.2761
     11 C         143.4527  138.4779  166.0704 C.2     1  UNL1        0.2490
     12 O         144.7140  137.8593  166.5962 O.2     1  UNL1       -0.2699
     13 C         141.1635  139.7334  166.6435 C.3     1  UNL1        0.0943
     14 C         140.4941  140.1957  167.9037 C.3     1  UNL1        0.0327
     15 C         139.0866  141.1415  170.2535 C.2     1  UNL1        0.3165
     16 O         137.8338  140.3954  170.6058 O.2     1  UNL1       -0.2501
     17 O         139.3480  142.4923  170.8509 O.3     1  UNL1       -0.4485
     18 C         141.6738  143.4169  170.1539 C.3     1  UNL1        0.0513
     19 C         140.1767  143.4951  170.1039 C.3     1  UNL1        0.2086
     20 C         142.3722  138.5332  160.1688 C.3     1  UNL1        0.0420
     21 C         141.5729  139.6487  159.5631 C.3     1  UNL1        0.0585
     22 C         141.2402  139.8062  158.1090 C.3     1  UNL1        0.0175
     23 C         140.4277  141.0573  157.9523 C.3     1  UNL1        0.0199
     24 C         140.2582  141.6730  159.3096 C.3     1  UNL1        0.0855
     25 N         140.9660  140.8024  160.3051 N.3     1  UNL1       -0.2971
     26 H         140.3013  140.4574  160.9976 H       1  UNL1        0.1233
     27 C         139.5120  142.9373  159.6173 C.3     1  UNL1        0.1470
     28 O         139.1408  143.8778  158.5094 O.3     1  UNL1       -0.3787
     29 H         138.6661  144.6395  158.8773 H       1  UNL1        0.2108
     30 C         139.1370  143.2611  161.0332 C.ar    1  UNL1        0.0055
     31 C         138.0472  142.4889  161.7158 C.ar    1  UNL1       -0.0019
     32 C         137.6723  142.8127  163.1317 C.ar    1  UNL1       -0.0002
     33 C         138.3872  143.9088  163.8649 C.ar    1  UNL1       -0.0000
     34 C         139.4770  144.6810  163.1822 C.ar    1  UNL1       -0.0002
     35 C         139.8519  144.3571  161.7664 C.ar    1  UNL1       -0.0019
@<TRIPOS>BOND
     1    18    19    1
     2    19    17    1
     3    17    15    1
     4    15    16    2
     5     7    15    1
     6     7     8    1
     7     8     9    1
     8     9    10    1
     9    10    11   am
    10    11    12    2
    11    11     1    1
    12     1     2   ar
    13     2     3   ar
    14     3     4   ar
    15     4    20    1
    16    21    20    1
    17    21    22    1
    18    22    23    1
    19    24    23    1
    20    24    27    1
    21    27    28    1
    22    27    30    1
    23    30    31   ar
    24    31    32   ar
    25    32    33   ar
    26    33    34   ar
    27    34    35   ar
    28    24    25    1
    29     4     5   ar
    30     5     6   ar
    31    10    13    1
    32    14    13    1
    33    14     7    1
    34    14     8    1
    35     6     1   ar
    36    25    21    1
    37    35    30   ar
    38    28    29    1
    39    25    26    1
@<TRIPOS>MOLECULE
*****
 35 39 0 0 0
SMALL
GASTEIGER

@<TRIPOS>ATOM
      1 C         139.3890  141.9018  162.0088 C.ar    1  UNL1        0.0536
      2 C         138.8980  143.3171  162.0857 C.ar    1  UNL1        0.0042
      3 C         139.5990  144.3971  161.3163 C.ar    1  UNL1       -0.0041
      4 C         140.7911  144.0619  160.4697 C.ar    1  UNL1       -0.0208
      5 C         141.2821  142.6466  160.3928 C.ar    1  UNL1       -0.0041
      6 C         140.5811  141.5666  161.1622 C.ar    1  UNL1        0.0042
      7 C         139.6432  140.2025  167.7570 C.3     1  UNL1        0.1025
      8 C         138.9146  139.7889  166.5128 C.3     1  UNL1        0.0327
      9 C         138.3476  139.6090  165.1358 C.3     1  UNL1        0.0943
     10 N         138.9686  140.6399  164.2405 N.am    1  UNL1       -0.2761
     11 C         138.6881  140.8218  162.7782 C.2     1  UNL1        0.2490
     12 O         137.7065  139.9237  162.0854 O.2     1  UNL1       -0.2699
     13 C         139.9194  141.4570  165.0641 C.3     1  UNL1        0.0943
     14 C         139.8860  140.9311  166.4685 C.3     1  UNL1        0.0327
     15 C         139.9238  140.0205  169.2193 C.2     1  UNL1        0.3165
     16 O         138.8118  140.1489  170.2179 O.2     1  UNL1       -0.2501
     17 O         141.3161  139.7102  169.6829 O.3     1  UNL1       -0.4485
     18 C         142.9445  141.5781  168.9022 C.3     1  UNL1        0.0513
     19 C         142.4943  140.1478  168.8640 C.3     1  UNL1        0.2086
     20 C         141.4921  145.1420  159.7003 C.3     1  UNL1        0.0420
     21 C         141.1016  145.4250  158.2799 C.3     1  UNL1        0.0585
     22 C         141.8189  144.9400  157.0550 C.3     1  UNL1        0.0175
     23 C         141.0860  145.4580  155.8532 C.3     1  UNL1        0.0199
     24 C         139.9158  146.2632  156.3352 C.3     1  UNL1        0.0855
     25 N         139.9255  146.2428  157.8351 N.3     1  UNL1       -0.2971
     26 H         139.0621  145.8242  158.1811 H       1  UNL1        0.1233
     27 C         138.9122  146.9654  155.4695 C.3     1  UNL1        0.1470
     28 O         137.7510  146.2058  154.8998 O.3     1  UNL1       -0.3787
     29 H         137.2029  146.8038  154.3680 H       1  UNL1        0.2108
     30 C         139.0697  148.4275  155.1734 C.ar    1  UNL1        0.0055
     31 C         138.4387  149.4475  156.0742 C.ar    1  UNL1       -0.0019
     32 C         138.5964  150.9095  155.7780 C.ar    1  UNL1       -0.0002
     33 C         139.3850  151.3515  154.5811 C.ar    1  UNL1       -0.0000
     34 C         140.0160  150.3315  153.6803 C.ar    1  UNL1       -0.0002
     35 C         139.8584  148.8695  153.9765 C.ar    1  UNL1       -0.0019
@<TRIPOS>BOND
     1    18    19    1
     2    19    17    1
     3    17    15    1
     4    15    16    2
     5     7    15    1
     6     7     8    1
     7     8     9    1
     8     9    10    1
     9    10    11   am
    10    11    12    2
    11    11     1    1
    12     1     2   ar
    13     2     3   ar
    14     3     4   ar
    15     4    20    1
    16    21    20    1
    17    21    22    1
    18    22    23    1
    19    24    23    1
    20    24    27    1
    21    27    28    1
    22    27    30    1
    23    30    31   ar
    24    31    32   ar
    25    32    33   ar
    26    33    34   ar
    27    34    35   ar
    28    24    25    1
    29     4     5   ar
    30     5     6   ar
    31    10    13    1
    32    14    13    1
    33    14     7    1
    34    14     8    1
    35     6     1   ar
    36    25    21    1
    37    35    30   ar
    38    28    29    1
    39    25    26    1
@<TRIPOS>MOLECULE
*****
 35 39 0 0 0
SMALL
GASTEIGER

@<TRIPOS>ATOM
      1 C         138.6424  138.5597  165.2410 C.ar    1  UNL1        0.0536
      2 C         138.1219  139.5380  164.2301 C.ar    1  UNL1        0.0042
      3 C         138.6845  139.5506  162.8396 C.ar    1  UNL1       -0.0041
      4 C         139.7677  138.5849  162.4601 C.ar    1  UNL1       -0.0208
      5 C         140.2882  137.6065  163.4711 C.ar    1  UNL1       -0.0041
      6 C         139.7256  137.5939  164.8615 C.ar    1  UNL1        0.0042
      7 C         140.2152  141.4176  170.2762 C.3     1  UNL1        0.1025
      8 C         139.1662  140.4369  169.8429 C.3     1  UNL1        0.0327
      9 C         138.2571  139.4802  169.1300 C.3     1  UNL1        0.0943
     10 N         138.7069  139.3902  167.7019 N.am    1  UNL1       -0.2761
     11 C         138.0798  138.5471  166.6314 C.2     1  UNL1        0.2490
     12 O         136.8901  137.6915  166.9513 O.2     1  UNL1       -0.2699
     13 C         139.8941  140.2913  167.5322 C.3     1  UNL1        0.0943
     14 C         140.1779  140.9381  168.8554 C.3     1  UNL1        0.0327
     15 C         140.8423  142.2606  171.3468 C.2     1  UNL1        0.3165
     16 O         140.1472  142.4397  172.6639 O.2     1  UNL1       -0.2501
     17 O         142.1645  142.9247  171.1001 O.3     1  UNL1       -0.4485
     18 C         143.7592  142.0223  169.2583 C.3     1  UNL1        0.0513
     19 C         142.7165  143.0025  169.7075 C.3     1  UNL1        0.2086
     20 C         140.3303  138.5974  161.0696 C.3     1  UNL1        0.0420
     21 C         140.5688  139.9020  160.3689 C.3     1  UNL1        0.0585
     22 C         140.3202  140.1808  158.9162 C.3     1  UNL1        0.0175
     23 C         140.6955  141.6080  158.6472 C.3     1  UNL1        0.0199
     24 C         141.1761  142.2112  159.9337 C.3     1  UNL1        0.0855
     25 N         141.0978  141.1569  160.9978 N.3     1  UNL1       -0.2971
     26 H         140.4705  141.4621  161.7420 H       1  UNL1        0.1233
     27 C         141.6515  143.6213  160.1230 C.3     1  UNL1        0.1470
     28 O         141.5048  144.6178  159.0115 O.3     1  UNL1       -0.3787
     29 H         141.8596  145.4745  159.2964 H       1  UNL1        0.2108
     30 C         142.2736  144.0347  161.4238 C.ar    1  UNL1        0.0055
     31 C         141.5227  144.9316  162.3628 C.ar    1  UNL1       -0.0019
     32 C         142.1449  145.3450  163.6636 C.ar    1  UNL1       -0.0002
     33 C         143.5179  144.8615  164.0253 C.ar    1  UNL1       -0.0000
     34 C         144.2689  143.9647  163.0863 C.ar    1  UNL1       -0.0002
     35 C         143.6467  143.5513  161.7856 C.ar    1  UNL1       -0.0019
@<TRIPOS>BOND
     1    18    19    1
     2    19    17    1
     3    17    15    1
     4    15    16    2
     5     7    15    1
     6     7     8    1
     7     8     9    1
     8     9    10    1
     9    10    11   am
    10    11    12    2
    11    11     1    1
    12     1     2   ar
    13     2     3   ar
    14     3     4   ar
    15     4    20    1
    16    21    20    1
    17    21    22    1
    18    22    23    1
    19    24    23    1
    20    24    27    1
    21    27    28    1
    22    27    30    1
    23    30    31   ar
    24    31    32   ar
    25    32    33   ar
    26    33    34   ar
    27    34    35   ar
    28    24    25    1
    29     4     5   ar
    30     5     6   ar
    31    10    13    1
    32    14    13    1
    33    14     7    1
    34    14     8    1
    35     6     1   ar
    36    25    21    1
    37    35    30   ar
    38    28    29    1
    39    25    26    1
@<TRIPOS>MOLECULE
*****
 35 39 0 0 0
SMALL
GASTEIGER

@<TRIPOS>ATOM
      1 C         137.8786  140.3257  161.8450 C.ar    1  UNL1        0.0536
      2 C         137.5017  141.3659  162.8578 C.ar    1  UNL1        0.0042
      3 C         137.7058  141.0982  164.3195 C.ar    1  UNL1       -0.0041
      4 C         138.2868  139.7901  164.7685 C.ar    1  UNL1       -0.0208
      5 C         138.6637  138.7499  163.7556 C.ar    1  UNL1       -0.0041
      6 C         138.4596  139.0176  162.2938 C.ar    1  UNL1        0.0042
      7 C         140.1844  144.4185  158.1131 C.3     1  UNL1        0.1025
      8 C         139.2154  143.2759  158.0390 C.3     1  UNL1        0.0327
      9 C         138.3100  142.1026  158.2705 C.3     1  UNL1        0.0943
     10 N         138.4117  141.7169  159.7165 N.am    1  UNL1       -0.2761
     11 C         137.6746  140.5935  160.3832 C.2     1  UNL1        0.2490
     12 O         136.7334  139.7378  159.5883 O.2     1  UNL1       -0.2699
     13 C         139.3799  142.6518  160.3787 C.3     1  UNL1        0.0943
     14 C         139.8767  143.6153  159.3419 C.3     1  UNL1        0.0327
     15 C         140.9216  145.5419  157.4463 C.2     1  UNL1        0.3165
     16 O         142.1633  146.1016  158.0748 O.2     1  UNL1       -0.2501
     17 O         140.4171  146.1056  156.1510 O.3     1  UNL1       -0.4485
     18 C         139.2386  148.1965  155.1564 C.3     1  UNL1        0.0513
     19 C         139.2710  147.0735  156.1502 C.3     1  UNL1        0.2086
     20 C         138.4908  139.5224  166.2302 C.3     1  UNL1        0.0420
     21 C         139.6227  140.1803  166.9623 C.3     1  UNL1        0.0585
     22 C         139.7562  140.3038  168.4512 C.3     1  UNL1        0.0175
     23 C         141.0357  141.0301  168.7432 C.3     1  UNL1        0.0199
     24 C         141.6930  141.3555  167.4348 C.3     1  UNL1        0.0855
     25 N         140.8197  140.8303  166.3341 N.3     1  UNL1       -0.2971
     26 H         141.3346  140.1456  165.7805 H       1  UNL1        0.1233
     27 C         142.9950  142.0790  167.2580 C.3     1  UNL1        0.1470
     28 O         143.6975  142.6608  168.4488 O.3     1  UNL1       -0.3787
     29 H         144.5182  143.0908  168.1618 H       1  UNL1        0.2108
     30 C         143.5946  142.2207  165.8904 C.ar    1  UNL1        0.0055
     31 C         143.7227  143.5778  165.2644 C.ar    1  UNL1       -0.0019
     32 C         144.3223  143.7194  163.8968 C.ar    1  UNL1       -0.0002
     33 C         144.7938  142.5038  163.1550 C.ar    1  UNL1       -0.0000
     34 C         144.6656  141.1467  163.7810 C.ar    1  UNL1       -0.0002
     35 C         144.0661  141.0051  165.1486 C.ar    1  UNL1       -0.0019
@<TRIPOS>BOND
     1    18    19    1
     2    19    17    1
     3    17    15    1
     4    15    16    2
     5     7    15    1
     6     7     8    1
     7     8     9    1
     8     9    10    1
     9    10    11   am
    10    11    12    2
    11    11     1    1
    12     1     2   ar
    13     2     3   ar
    14     3     4   ar
    15     4    20    1
    16    21    20    1
    17    21    22    1
    18    22    23    1
    19    24    23    1
    20    24    27    1
    21    27    28    1
    22    27    30    1
    23    30    31   ar
    24    31    32   ar
    25    32    33   ar
    26    33    34   ar
    27    34    35   ar
    28    24    25    1
    29     4     5   ar
    30     5     6   ar
    31    10    13    1
    32    14    13    1
    33    14     7    1
    34    14     8    1
    35     6     1   ar
    36    25    21    1
    37    35    30   ar
    38    28    29    1
    39    25    26    1
@<TRIPOS>MOLECULE
*****
 35 39 0 0 0
SMALL
GASTEIGER

@<TRIPOS>ATOM
      1 C         138.1311  139.4073  161.9411 C.ar    1  UNL1        0.0536
      2 C         138.5689  138.1602  162.6501 C.ar    1  UNL1        0.0042
      3 C         138.6809  138.1478  164.1459 C.ar    1  UNL1       -0.0041
      4 C         138.3551  139.3827  164.9326 C.ar    1  UNL1       -0.0208
      5 C         137.9173  140.6299  164.2235 C.ar    1  UNL1       -0.0041
      6 C         137.8053  140.6423  162.7277 C.ar    1  UNL1        0.0042
      7 C         142.1277  138.4560  157.5688 C.3     1  UNL1        0.1025
      8 C         140.6697  138.7900  157.6807 C.3     1  UNL1        0.0327
      9 C         139.2668  139.1141  158.1012 C.3     1  UNL1        0.0943
     10 N         139.2258  139.1367  159.6004 N.am    1  UNL1       -0.2761
     11 C         138.0191  139.4197  160.4453 C.2     1  UNL1        0.2490
     12 O         136.7004  139.7151  159.7944 O.2     1  UNL1       -0.2699
     13 C         140.6033  138.8266  160.1066 C.3     1  UNL1        0.0943
     14 C         141.4957  138.6123  158.9201 C.3     1  UNL1        0.0327
     15 C         143.3344  138.1730  156.7239 C.2     1  UNL1        0.3165
     16 O         144.3862  139.2269  156.5414 O.2     1  UNL1       -0.2501
     17 O         143.4894  136.8361  156.0615 O.3     1  UNL1       -0.4485
     18 C         143.8048  134.3121  156.5904 C.3     1  UNL1        0.0513
     19 C         143.0431  135.5917  156.7703 C.3     1  UNL1        0.2086
     20 C         138.4671  139.3703  166.4284 C.3     1  UNL1        0.0420
     21 C         139.6541  139.9982  167.0968 C.3     1  UNL1        0.0585
     22 C         139.9369  140.0018  168.5699 C.3     1  UNL1        0.0175
     23 C         141.2242  140.7386  168.7930 C.3     1  UNL1        0.0199
     24 C         141.7371  141.1904  167.4578 C.3     1  UNL1        0.0855
     25 N         140.7667  140.7328  166.4095 N.3     1  UNL1       -0.2971
     26 H         141.2364  140.1118  165.7505 H       1  UNL1        0.1233
     27 C         142.9989  141.9640  167.2138 C.3     1  UNL1        0.1470
     28 O         143.6563  142.7020  168.3421 O.3     1  UNL1       -0.3787
     29 H         144.4549  143.1458  168.0163 H       1  UNL1        0.2108
     30 C         143.6032  141.9995  165.8413 C.ar    1  UNL1        0.0055
     31 C         143.8010  143.3120  165.1426 C.ar    1  UNL1       -0.0019
     32 C         144.4053  143.3475  163.7702 C.ar    1  UNL1       -0.0002
     33 C         144.8118  142.0704  163.0965 C.ar    1  UNL1       -0.0000
     34 C         144.6140  140.7579  163.7952 C.ar    1  UNL1       -0.0002
     35 C         144.0097  140.7225  165.1676 C.ar    1  UNL1       -0.0019
@<TRIPOS>BOND
     1    18    19    1
     2    19    17    1
     3    17    15    1
     4    15    16    2
     5     7    15    1
     6     7     8    1
     7     8     9    1
     8     9    10    1
     9    10    11   am
    10    11    12    2
    11    11     1    1
    12     1     2   ar
    13     2     3   ar
    14     3     4   ar
    15     4    20    1
    16    21    20    1
    17    21    22    1
    18    22    23    1
    19    24    23    1
    20    24    27    1
    21    27    28    1
    22    27    30    1
    23    30    31   ar
    24    31    32   ar
    25    32    33   ar
    26    33    34   ar
    27    34    35   ar
    28    24    25    1
    29     4     5   ar
    30     5     6   ar
    31    10    13    1
    32    14    13    1
    33    14     7    1
    34    14     8    1
    35     6     1   ar
    36    25    21    1
    37    35    30   ar
    38    28    29    1
    39    25    26    1
@<TRIPOS>MOLECULE
*****
 35 39 0 0 0
SMALL
GASTEIGER

@<TRIPOS>ATOM
      1 C         142.1203  139.0649  163.1741 C.ar    1  UNL1        0.0536
      2 C         141.0486  138.0603  162.8706 C.ar    1  UNL1        0.0042
      3 C         140.4034  138.0377  161.5166 C.ar    1  UNL1       -0.0041
      4 C         140.8301  139.0197  160.4660 C.ar    1  UNL1       -0.0208
      5 C         141.9019  140.0243  160.7695 C.ar    1  UNL1       -0.0041
      6 C         142.5470  140.0469  162.1235 C.ar    1  UNL1        0.0042
      7 C         140.0065  140.3004  168.6513 C.3     1  UNL1        0.1025
      8 C         141.3146  139.9021  168.0347 C.3     1  UNL1        0.0327
      9 C         142.4601  139.5079  167.1501 C.3     1  UNL1        0.0943
     10 N         141.9552  139.4437  165.7391 N.am    1  UNL1       -0.2761
     11 C         142.7655  139.0875  164.5280 C.2     1  UNL1        0.2490
     12 O         144.2209  138.7539  164.6710 O.2     1  UNL1       -0.2699
     13 C         140.4977  139.7983  165.7516 C.3     1  UNL1        0.0943
     14 C         140.1019  140.0816  167.1704 C.3     1  UNL1        0.0327
     15 C         139.1963  140.6566  169.8623 C.2     1  UNL1        0.3165
     16 O         138.0445  139.7890  170.2759 O.2     1  UNL1       -0.2501
     17 O         139.5377  141.8803  170.6598 O.3     1  UNL1       -0.4485
     18 C         141.7895  143.0940  170.2061 C.3     1  UNL1        0.0513
     19 C         140.9632  142.1567  171.0360 C.3     1  UNL1        0.2086
     20 C         140.1849  138.9970  159.1120 C.3     1  UNL1        0.0420
     21 C         141.0026  138.6730  157.8970 C.3     1  UNL1        0.0585
     22 C         140.9475  139.3896  156.5804 C.3     1  UNL1        0.0175
     23 C         141.9298  138.7350  155.6549 C.3     1  UNL1        0.0199
     24 C         142.5920  137.6139  156.3995 C.3     1  UNL1        0.0855
     25 N         142.0190  137.5756  157.7852 N.3     1  UNL1       -0.2971
     26 H         142.7606  137.7195  158.4705 H       1  UNL1        0.1233
     27 C         143.6428  136.6928  155.8541 C.3     1  UNL1        0.1470
     28 O         144.9723  137.2407  155.4272 O.3     1  UNL1       -0.3787
     29 H         145.5306  136.5175  155.1015 H       1  UNL1        0.2108
     30 C         143.3641  135.2236  155.7357 C.ar    1  UNL1        0.0055
     31 C         142.8492  134.6595  154.4447 C.ar    1  UNL1       -0.0019
     32 C         142.5705  133.1904  154.3264 C.ar    1  UNL1       -0.0002
     33 C         142.8067  132.2854  155.4991 C.ar    1  UNL1       -0.0000
     34 C         143.3216  132.8495  156.7901 C.ar    1  UNL1       -0.0002
     35 C         143.6003  134.3186  156.9084 C.ar    1  UNL1       -0.0019
@<TRIPOS>BOND
     1    18    19    1
     2    19    17    1
     3    17    15    1
     4    15    16    2
     5     7    15    1
     6     7     8    1
     7     8     9    1
     8     9    10    1
     9    10    11   am
    10    11    12    2
    11    11     1    1
    12     1     2   ar
    13     2     3   ar
    14     3     4   ar
    15     4    20    1
    16    21    20    1
    17    21    22    1
    18    22    23    1
    19    24    23    1
    20    24    27    1
    21    27    28    1
    22    27    30    1
    23    30    31   ar
    24    31    32   ar
    25    32    33   ar
    26    33    34   ar
    27    34    35   ar
    28    24    25    1
    29     4     5   ar
    30     5     6   ar
    31    10    13    1
    32    14    13    1
    33    14     7    1
    34    14     8    1
    35     6     1   ar
    36    25    21    1
    37    35    30   ar
    38    28    29    1
    39    25    26    1
