@<TRIPOS>MOLECULE
*****
 16 17 0 0 0
SMALL
GASTEIGER

@<TRIPOS>ATOM
      1 C         140.3528  144.1427  169.9669 C.3     1  UNL1        0.0319
      2 C         141.1170  142.9427  169.4915 C.ar    1  UNL1       -0.0116
      3 C         140.4838  141.9842  168.5269 C.ar    1  UNL1       -0.0076
      4 C         141.2479  140.7842  168.0515 C.ar    1  UNL1       -0.0211
      5 C         142.6452  140.5426  168.5406 C.ar    1  UNL1       -0.0034
      6 C         143.2784  141.5011  169.5052 C.ar    1  UNL1        0.0108
      7 C         142.5142  142.7012  169.9807 C.ar    1  UNL1        0.0537
      8 CL        143.1473  143.6596  170.9453 Cl      1  UNL1       -0.0826
      9 C         140.6148  139.8257  167.0868 C.3     1  UNL1        0.0424
     10 C         139.1375  139.6210  167.2479 C.3     1  UNL1        0.0315
     11 C         138.2232  138.7387  166.4505 C.2     1  UNL1       -0.0289
     12 C         138.5604  137.8432  165.2955 C.2     1  UNL1       -0.0136
     13 C         139.8951  137.6088  164.6522 C.3     1  UNL1        0.0950
     14 N         141.2223  138.2120  165.0054 N.3     1  UNL1       -0.2935
     15 C         141.5425  139.1986  166.0889 C.3     1  UNL1        0.0735
     16 H         141.5333  138.6658  164.1465 H       1  UNL1        0.1236
@<TRIPOS>BOND
     1     1     2    1
     2     2     3   ar
     3     3     4   ar
     4     4     9    1
     5     9    10    1
     6    10    11    1
     7    11    12    2
     8    12    13    1
     9    13    14    1
    10    14    15    1
    11     4     5   ar
    12     5     6   ar
    13     6     7   ar
    14     7     8    1
    15     7     2   ar
    16    15     9    1
    17    14    16    1
@<TRIPOS>MOLECULE
*****
 16 17 0 0 0
SMALL
GASTEIGER

@<TRIPOS>ATOM
      1 C         141.0327  142.5694  170.6058 C.3     1  UNL1        0.0319
      2 C         141.4429  142.5199  169.1638 C.ar    1  UNL1       -0.0116
      3 C         140.4091  142.6522  168.0850 C.ar    1  UNL1       -0.0076
      4 C         140.8193  142.6027  166.6430 C.ar    1  UNL1       -0.0211
      5 C         142.2633  142.4208  166.2798 C.ar    1  UNL1       -0.0034
      6 C         143.2971  142.2885  167.3586 C.ar    1  UNL1        0.0108
      7 C         142.8869  142.3380  168.8006 C.ar    1  UNL1        0.0537
      8 CL        143.9206  142.2057  169.8794 Cl      1  UNL1       -0.0826
      9 C         139.7856  142.7350  165.5642 C.3     1  UNL1        0.0424
     10 C         139.7146  144.0740  164.8917 C.3     1  UNL1        0.0315
     11 C         138.8000  144.5196  163.7894 C.2     1  UNL1       -0.0289
     12 C         137.7306  143.7363  163.0874 C.2     1  UNL1       -0.0136
     13 C         137.3116  142.3140  163.3143 C.3     1  UNL1        0.0950
     14 N         137.8586  141.3237  164.2992 N.3     1  UNL1       -0.2935
     15 C         138.9596  141.5111  165.3005 C.3     1  UNL1        0.0735
     16 H         138.1647  140.5367  163.7270 H       1  UNL1        0.1236
@<TRIPOS>BOND
     1     1     2    1
     2     2     3   ar
     3     3     4   ar
     4     4     9    1
     5     9    10    1
     6    10    11    1
     7    11    12    2
     8    12    13    1
     9    13    14    1
    10    14    15    1
    11     4     5   ar
    12     5     6   ar
    13     6     7   ar
    14     7     8    1
    15     7     2   ar
    16    15     9    1
    17    14    16    1
@<TRIPOS>MOLECULE
*****
 16 17 0 0 0
SMALL
GASTEIGER

@<TRIPOS>ATOM
      1 C         137.3256  141.7446  163.0848 C.3     1  UNL1        0.0319
      2 C         138.1004  140.5771  163.6201 C.ar    1  UNL1       -0.0116
      3 C         138.7635  140.6690  164.9625 C.ar    1  UNL1       -0.0076
      4 C         139.5383  139.5015  165.4978 C.ar    1  UNL1       -0.0211
      5 C         139.6501  138.2421  164.6908 C.ar    1  UNL1       -0.0034
      6 C         138.9872  138.1501  163.3484 C.ar    1  UNL1        0.0108
      7 C         138.2123  139.3177  162.8130 C.ar    1  UNL1        0.0537
      8 CL        137.5493  139.2257  161.4707 Cl      1  UNL1       -0.0826
      9 C         140.2013  139.5934  166.8402 C.3     1  UNL1        0.0424
     10 C         141.6956  139.4622  166.8383 C.3     1  UNL1        0.0315
     11 C         142.6401  139.5095  168.0028 C.2     1  UNL1       -0.0289
     12 C         142.3235  139.6996  169.4565 C.2     1  UNL1       -0.0136
     13 C         140.9843  139.8895  170.1051 C.3     1  UNL1        0.0950
     14 N         139.6309  139.9360  169.4599 N.3     1  UNL1       -0.2935
     15 C         139.2825  139.8042  168.0069 C.3     1  UNL1        0.0735
     16 H         139.2486  140.8413  169.7333 H       1  UNL1        0.1236
@<TRIPOS>BOND
     1     1     2    1
     2     2     3   ar
     3     3     4   ar
     4     4     9    1
     5     9    10    1
     6    10    11    1
     7    11    12    2
     8    12    13    1
     9    13    14    1
    10    14    15    1
    11     4     5   ar
    12     5     6   ar
    13     6     7   ar
    14     7     8    1
    15     7     2   ar
    16    15     9    1
    17    14    16    1
@<TRIPOS>MOLECULE
*****
 16 17 0 0 0
SMALL
GASTEIGER

@<TRIPOS>ATOM
      1 C         138.2296  139.0805  167.1992 C.3     1  UNL1        0.0319
      2 C         139.4475  139.8515  167.6140 C.ar    1  UNL1       -0.0116
      3 C         140.5676  140.0655  166.6394 C.ar    1  UNL1       -0.0076
      4 C         141.7856  140.8365  167.0541 C.ar    1  UNL1       -0.0211
      5 C         141.8836  141.3935  168.4434 C.ar    1  UNL1       -0.0034
      6 C         140.7636  141.1796  169.4180 C.ar    1  UNL1        0.0108
      7 C         139.5455  140.4085  169.0033 C.ar    1  UNL1        0.0537
      8 CL        138.4255  140.1946  169.9778 Cl      1  UNL1       -0.0826
      9 C         142.9056  141.0505  166.0796 C.3     1  UNL1        0.0424
     10 C         143.3587  142.4705  165.9106 C.3     1  UNL1        0.0315
     11 C         144.4426  143.0070  165.0231 C.2     1  UNL1       -0.0289
     12 C         145.3410  142.2560  164.0857 C.2     1  UNL1       -0.0136
     13 C         145.3775  140.7832  163.8040 C.3     1  UNL1        0.0950
     14 N         144.5246  139.6975  164.3903 N.3     1  UNL1       -0.2935
     15 C         143.4245  139.8165  165.4031 C.3     1  UNL1        0.0735
     16 H         145.1900  139.0488  164.8109 H       1  UNL1        0.1236
@<TRIPOS>BOND
     1     1     2    1
     2     2     3   ar
     3     3     4   ar
     4     4     9    1
     5     9    10    1
     6    10    11    1
     7    11    12    2
     8    12    13    1
     9    13    14    1
    10    14    15    1
    11     4     5   ar
    12     5     6   ar
    13     6     7   ar
    14     7     8    1
    15     7     2   ar
    16    15     9    1
    17    14    16    1
@<TRIPOS>MOLECULE
*****
 16 17 0 0 0
SMALL
GASTEIGER

@<TRIPOS>ATOM
      1 C         139.7980  140.1434  170.4577 C.3     1  UNL1        0.0319
      2 C         139.9092  140.7999  169.1137 C.ar    1  UNL1       -0.0116
      3 C         139.5236  140.0449  167.8761 C.ar    1  UNL1       -0.0076
      4 C         139.6348  140.7014  166.5320 C.ar    1  UNL1       -0.0211
      5 C         140.1315  142.1127  166.4253 C.ar    1  UNL1       -0.0034
      6 C         140.5170  142.8677  167.6629 C.ar    1  UNL1        0.0108
      7 C         140.4059  142.2112  169.0070 C.ar    1  UNL1        0.0537
      8 CL        140.7914  142.9661  170.2445 Cl      1  UNL1       -0.0826
      9 C         139.2493  139.9465  165.2944 C.3     1  UNL1        0.0424
     10 C         139.7818  138.5478  165.1929 C.3     1  UNL1        0.0315
     11 C         139.5788  137.5473  164.0939 C.2     1  UNL1       -0.0289
     12 C         138.7932  137.6983  162.8251 C.2     1  UNL1       -0.0136
     13 C         138.0166  138.8871  162.3417 C.3     1  UNL1        0.0950
     14 N         137.8337  140.2185  163.0080 N.3     1  UNL1       -0.2935
     15 C         138.3824  140.6900  164.3221 C.3     1  UNL1        0.0735
     16 H         136.8232  140.3208  163.1015 H       1  UNL1        0.1236
@<TRIPOS>BOND
     1     1     2    1
     2     2     3   ar
     3     3     4   ar
     4     4     9    1
     5     9    10    1
     6    10    11    1
     7    11    12    2
     8    12    13    1
     9    13    14    1
    10    14    15    1
    11     4     5   ar
    12     5     6   ar
    13     6     7   ar
    14     7     8    1
    15     7     2   ar
    16    15     9    1
    17    14    16    1
@<TRIPOS>MOLECULE
*****
 16 17 0 0 0
SMALL
GASTEIGER

@<TRIPOS>ATOM
      1 C         144.4147  139.2699  163.7454 C.3     1  UNL1        0.0319
      2 C         144.1137  140.4741  164.5875 C.ar    1  UNL1       -0.0116
      3 C         143.1018  140.3836  165.6912 C.ar    1  UNL1       -0.0076
      4 C         142.8008  141.5878  166.5333 C.ar    1  UNL1       -0.0211
      5 C         143.5115  142.8825  166.2718 C.ar    1  UNL1       -0.0034
      6 C         144.5234  142.9732  165.1681 C.ar    1  UNL1        0.0108
      7 C         144.8244  141.7689  164.3260 C.ar    1  UNL1        0.0537
      8 CL        145.8362  141.8594  163.2223 Cl      1  UNL1       -0.0826
      9 C         141.7890  141.4973  167.6370 C.3     1  UNL1        0.0424
     10 C         141.4761  142.7849  168.3401 C.3     1  UNL1        0.0315
     11 C         140.5207  143.0244  169.4715 C.2     1  UNL1       -0.0289
     12 C         139.6426  142.0356  170.1792 C.2     1  UNL1       -0.0136
     13 C         139.5026  140.5630  169.9303 C.3     1  UNL1        0.0950
     14 N         140.2064  139.7156  168.9123 N.3     1  UNL1       -0.2935
     15 C         141.2240  140.1315  167.8916 C.3     1  UNL1        0.0735
     16 H         139.4546  139.2944  168.3666 H       1  UNL1        0.1236
@<TRIPOS>BOND
     1     1     2    1
     2     2     3   ar
     3     3     4   ar
     4     4     9    1
     5     9    10    1
     6    10    11    1
     7    11    12    2
     8    12    13    1
     9    13    14    1
    10    14    15    1
    11     4     5   ar
    12     5     6   ar
    13     6     7   ar
    14     7     8    1
    15     7     2   ar
    16    15     9    1
    17    14    16    1
@<TRIPOS>MOLECULE
*****
 16 17 0 0 0
SMALL
GASTEIGER

@<TRIPOS>ATOM
      1 C         139.2233  140.5273  169.9812 C.3     1  UNL1        0.0319
      2 C         140.0171  140.1435  168.7677 C.ar    1  UNL1       -0.0116
      3 C         139.3294  139.9687  167.4461 C.ar    1  UNL1       -0.0076
      4 C         140.1231  139.5849  166.2326 C.ar    1  UNL1       -0.0211
      5 C         141.6046  139.3760  166.3406 C.ar    1  UNL1       -0.0034
      6 C         142.2923  139.5508  167.6622 C.ar    1  UNL1        0.0108
      7 C         141.4985  139.9346  168.8758 C.ar    1  UNL1        0.0537
      8 CL        142.1862  140.1094  170.1973 Cl      1  UNL1       -0.0826
      9 C         139.4355  139.4100  164.9110 C.3     1  UNL1        0.0424
     10 C         139.5112  138.0356  164.3149 C.3     1  UNL1        0.0315
     11 C         138.9332  137.5444  163.0207 C.2     1  UNL1       -0.0289
     12 C         138.1368  138.3062  162.0033 C.2     1  UNL1       -0.0136
     13 C         137.7217  139.7474  162.0285 C.3     1  UNL1        0.0950
     14 N         138.0004  140.7827  163.0775 N.3     1  UNL1       -0.2935
     15 C         138.7632  140.6325  164.3603 C.3     1  UNL1        0.0735
     16 H         137.0781  141.1096  163.3654 H       1  UNL1        0.1236
@<TRIPOS>BOND
     1     1     2    1
     2     2     3   ar
     3     3     4   ar
     4     4     9    1
     5     9    10    1
     6    10    11    1
     7    11    12    2
     8    12    13    1
     9    13    14    1
    10    14    15    1
    11     4     5   ar
    12     5     6   ar
    13     6     7   ar
    14     7     8    1
    15     7     2   ar
    16    15     9    1
    17    14    16    1
@<TRIPOS>MOLECULE
*****
 16 17 0 0 0
SMALL
GASTEIGER

@<TRIPOS>ATOM
      1 C         138.9631  140.4050  170.0271 C.3     1  UNL1        0.0319
      2 C         139.8544  140.1017  168.8594 C.ar    1  UNL1       -0.0116
      3 C         139.2578  139.8456  167.5071 C.ar    1  UNL1       -0.0076
      4 C         140.1491  139.5423  166.3394 C.ar    1  UNL1       -0.0211
      5 C         141.6369  139.4952  166.5239 C.ar    1  UNL1       -0.0034
      6 C         142.2336  139.7514  167.8761 C.ar    1  UNL1        0.0108
      7 C         141.3422  140.0546  169.0439 C.ar    1  UNL1        0.0537
      8 CL        141.9388  140.3108  170.3960 Cl      1  UNL1       -0.0826
      9 C         139.5526  139.2862  164.9872 C.3     1  UNL1        0.0424
     10 C         138.6037  140.3341  164.4854 C.3     1  UNL1        0.0315
     11 C         137.8517  140.3706  163.1879 C.2     1  UNL1       -0.0289
     12 C         137.8628  139.3684  162.0721 C.2     1  UNL1       -0.0136
     13 C         138.6286  138.0820  161.9778 C.3     1  UNL1        0.0950
     14 N         139.5725  137.4802  162.9763 N.3     1  UNL1       -0.2935
     15 C         139.9836  138.0162  164.3156 C.3     1  UNL1        0.0735
     16 H         140.4484  137.3696  162.4654 H       1  UNL1        0.1236
@<TRIPOS>BOND
     1     1     2    1
     2     2     3   ar
     3     3     4   ar
     4     4     9    1
     5     9    10    1
     6    10    11    1
     7    11    12    2
     8    12    13    1
     9    13    14    1
    10    14    15    1
    11     4     5   ar
    12     5     6   ar
    13     6     7   ar
    14     7     8    1
    15     7     2   ar
    16    15     9    1
    17    14    16    1
@<TRIPOS>MOLECULE
*****
 16 17 0 0 0
SMALL
GASTEIGER

@<TRIPOS>ATOM
      1 C         143.3102  142.1735  169.0463 C.3     1  UNL1        0.0319
      2 C         142.0790  141.6536  168.3655 C.ar    1  UNL1       -0.0116
      3 C         141.4638  142.4257  167.2360 C.ar    1  UNL1       -0.0076
      4 C         140.2325  141.9058  166.5552 C.ar    1  UNL1       -0.0211
      5 C         139.6163  140.6139  167.0038 C.ar    1  UNL1       -0.0034
      6 C         140.2314  139.8418  168.1332 C.ar    1  UNL1        0.0108
      7 C         141.4628  140.3617  168.8141 C.ar    1  UNL1        0.0537
      8 CL        142.0779  139.5897  169.9435 Cl      1  UNL1       -0.0826
      9 C         139.6173  142.6778  165.4258 C.3     1  UNL1        0.0424
     10 C         138.4370  142.0316  164.7628 C.3     1  UNL1        0.0315
     11 C         137.6116  142.5420  163.6189 C.2     1  UNL1       -0.0289
     12 C         137.7627  143.8243  162.8557 C.2     1  UNL1       -0.0136
     13 C         138.7763  144.9132  163.0476 C.3     1  UNL1        0.0950
     14 N         139.8894  144.9885  164.0503 N.3     1  UNL1       -0.2935
     15 C         140.2636  143.9936  165.1087 C.3     1  UNL1        0.0735
     16 H         139.7136  145.8528  164.5627 H       1  UNL1        0.1236
@<TRIPOS>BOND
     1     1     2    1
     2     2     3   ar
     3     3     4   ar
     4     4     9    1
     5     9    10    1
     6    10    11    1
     7    11    12    2
     8    12    13    1
     9    13    14    1
    10    14    15    1
    11     4     5   ar
    12     5     6   ar
    13     6     7   ar
    14     7     8    1
    15     7     2   ar
    16    15     9    1
    17    14    16    1
