@<TRIPOS>MOLECULE
*****
 35 39 0 0 0
SMALL
GASTEIGER

@<TRIPOS>ATOM
      1 N         138.6471  139.1205  164.9611 N.3     1  UNL1       -0.2703
      2 C         138.0481  140.2993  164.2530 C.3     1  UNL1        0.0727
      3 C         138.0672  140.3631  162.7545 C.3     1  UNL1        0.0260
      4 C         138.6853  139.2480  161.9641 C.3     1  UNL1        0.0737
      5 C         139.2843  138.0692  162.6723 C.3     1  UNL1        0.0260
      6 C         139.2651  138.0054  164.1708 C.3     1  UNL1        0.0727
      7 C         139.2650  138.2140  161.0450 C.3     1  UNL1        0.0306
      8 C         139.0660  138.6840  159.6344 C.3     1  UNL1        0.1001
      9 N         138.3633  140.0084  159.6818 N.am    1  UNL1       -0.2425
     10 C         138.1280  140.3570  161.1216 C.2     1  UNL1        0.2296
     11 O         137.4539  141.5968  161.6298 O.2     1  UNL1       -0.2745
     12 C         137.9658  140.8384  158.4974 C.ar    1  UNL1        0.1571
     13 C         138.7680  142.0508  158.1280 C.ar    1  UNL1        0.0369
     14 C         138.3705  142.8809  156.9435 C.ar    1  UNL1        0.0385
     15 C         139.1727  144.0932  156.5740 C.3     1  UNL1        0.0362
     16 C         137.1706  142.4986  156.1285 C.ar    1  UNL1        0.2725
     17 O         136.7731  143.3287  154.9440 O.2     1  UNL1       -0.2659
     18 N         136.3683  141.2861  156.4979 N.ar    1  UNL1       -0.2137
     19 C         135.1685  140.9039  155.6829 C.3     1  UNL1        0.1571
     20 N         136.7660  140.4561  157.6824 N.ar    1  UNL1       -0.1513
     21 C         138.6280  139.0567  166.4597 C.3     1  UNL1        0.1063
     22 C         139.7563  139.6500  167.2501 C.3     1  UNL1        0.1483
     23 O         139.6382  139.7870  168.7391 O.3     1  UNL1       -0.3786
     24 H         140.4487  140.1860  169.0924 H       1  UNL1        0.2108
     25 C         140.0441  142.5172  166.4156 C.3     1  UNL1        0.0306
     26 C         141.1466  141.5399  166.1342 C.ar    1  UNL1       -0.0238
     27 C         141.0028  140.1064  166.5514 C.ar    1  UNL1        0.0015
     28 C         142.1054  139.1291  166.2700 C.ar    1  UNL1       -0.0020
     29 C         143.3518  139.5854  165.5713 C.ar    1  UNL1        0.0060
     30 C         143.4957  141.0189  165.1541 C.ar    1  UNL1        0.0748
     31 C         142.3931  141.9962  165.4356 C.ar    1  UNL1        0.0233
     32 C         142.8158  143.3360  164.9098 C.3     1  UNL1        0.2352
     33 O         144.1796  143.1867  164.3034 O.3     1  UNL1       -0.4404
     34 C         144.5998  141.7547  164.4545 C.2     1  UNL1        0.3413
     35 O         145.8965  141.1624  163.9877 O.2     1  UNL1       -0.2449
@<TRIPOS>BOND
     1    25    26    1
     2    26    27   ar
     3    27    22    1
     4    22    23    1
     5    22    21    1
     6    21     1    1
     7     1     2    1
     8     2     3    1
     9     3     4    1
    10     4     5    1
    11     5     6    1
    12     4     7    1
    13     7     8    1
    14     8     9    1
    15     9    12    1
    16    12    13   ar
    17    13    14   ar
    18    14    15    1
    19    14    16   ar
    20    16    17    2
    21    16    18   ar
    22    18    19    1
    23    18    20   ar
    24     9    10   am
    25    10    11    2
    26    27    28   ar
    27    28    29   ar
    28    29    30   ar
    29    30    31   ar
    30    31    32    1
    31    32    33    1
    32    33    34    1
    33    34    35    2
    34    31    26   ar
    35     6     1    1
    36    20    12   ar
    37    34    30    1
    38    10     4    1
    39    23    24    1
@<TRIPOS>MOLECULE
*****
 35 39 0 0 0
SMALL
GASTEIGER

@<TRIPOS>ATOM
      1 N         139.8802  137.8072  164.1436 N.3     1  UNL1       -0.2703
      2 C         139.4687  137.8777  162.7029 C.3     1  UNL1        0.0727
      3 C         140.5038  138.0802  161.6364 C.3     1  UNL1        0.0260
      4 C         141.9503  138.2122  162.0105 C.3     1  UNL1        0.0737
      5 C         142.3619  138.1417  163.4512 C.3     1  UNL1        0.0260
      6 C         141.3268  137.9392  164.5177 C.3     1  UNL1        0.0727
      7 C         143.4267  138.3600  162.2312 C.3     1  UNL1        0.0306
      8 C         144.0796  138.5416  160.8930 C.3     1  UNL1        0.1001
      9 N         143.0068  138.5061  159.8452 N.am    1  UNL1       -0.2425
     10 C         141.6909  138.3025  160.5358 C.2     1  UNL1        0.2296
     11 O         140.3508  138.2062  159.8689 O.2     1  UNL1       -0.2745
     12 C         143.2136  138.6490  158.3665 C.ar    1  UNL1        0.1571
     13 C         142.7206  137.5828  157.4337 C.ar    1  UNL1        0.0369
     14 C         142.9274  137.7257  155.9549 C.ar    1  UNL1        0.0385
     15 C         142.4344  136.6595  155.0221 C.3     1  UNL1        0.0362
     16 C         143.6272  138.9349  155.4089 C.ar    1  UNL1        0.2725
     17 O         143.8340  139.0779  153.9301 O.2     1  UNL1       -0.2659
     18 N         144.1203  140.0012  156.3417 N.ar    1  UNL1       -0.2137
     19 C         144.8201  141.2104  155.7957 C.3     1  UNL1        0.1571
     20 N         143.9134  139.8582  157.8205 N.ar    1  UNL1       -0.1513
     21 C         138.8451  137.6047  165.2103 C.3     1  UNL1        0.1063
     22 C         138.1492  138.7882  165.8143 C.3     1  UNL1        0.1483
     23 O         137.3052  138.6157  167.0423 O.3     1  UNL1       -0.3786
     24 H         136.9304  139.4725  167.3000 H       1  UNL1        0.2108
     25 C         140.0941  140.7632  166.9620 C.3     1  UNL1        0.0306
     26 C         139.2697  141.1318  165.7643 C.ar    1  UNL1       -0.0238
     27 C         138.2973  140.1443  165.1905 C.ar    1  UNL1        0.0015
     28 C         137.4729  140.5129  163.9927 C.ar    1  UNL1       -0.0020
     29 C         137.6209  141.8689  163.3688 C.ar    1  UNL1        0.0060
     30 C         138.5933  142.8564  163.9427 C.ar    1  UNL1        0.0748
     31 C         139.4177  142.4878  165.1404 C.ar    1  UNL1        0.0233
     32 C         140.2877  143.6607  165.4830 C.3     1  UNL1        0.2352
     33 O         140.0010  144.7542  164.4971 O.3     1  UNL1       -0.4404
     34 C         138.9538  144.2571  163.5451 C.2     1  UNL1        0.3413
     35 O         138.3696  145.0257  162.3971 O.2     1  UNL1       -0.2449
@<TRIPOS>BOND
     1    25    26    1
     2    26    27   ar
     3    27    22    1
     4    22    23    1
     5    22    21    1
     6    21     1    1
     7     1     2    1
     8     2     3    1
     9     3     4    1
    10     4     5    1
    11     5     6    1
    12     4     7    1
    13     7     8    1
    14     8     9    1
    15     9    12    1
    16    12    13   ar
    17    13    14   ar
    18    14    15    1
    19    14    16   ar
    20    16    17    2
    21    16    18   ar
    22    18    19    1
    23    18    20   ar
    24     9    10   am
    25    10    11    2
    26    27    28   ar
    27    28    29   ar
    28    29    30   ar
    29    30    31   ar
    30    31    32    1
    31    32    33    1
    32    33    34    1
    33    34    35    2
    34    31    26   ar
    35     6     1    1
    36    20    12   ar
    37    34    30    1
    38    10     4    1
    39    23    24    1
@<TRIPOS>MOLECULE
*****
 35 39 0 0 0
SMALL
GASTEIGER

@<TRIPOS>ATOM
      1 N         144.7855  141.8570  162.6963 N.3     1  UNL1       -0.2703
      2 C         144.4265  140.4108  162.5249 C.3     1  UNL1        0.0727
      3 C         143.9335  139.9125  161.1988 C.3     1  UNL1        0.0260
      4 C         143.7996  140.8605  160.0441 C.3     1  UNL1        0.0737
      5 C         144.1586  142.3067  160.2154 C.3     1  UNL1        0.0260
      6 C         144.6515  142.8050  161.5416 C.3     1  UNL1        0.0727
      7 C         143.6149  141.6859  158.8052 C.3     1  UNL1        0.0306
      8 C         143.1059  140.7848  157.7194 C.3     1  UNL1        0.1001
      9 N         142.9759  139.4024  158.2872 N.am    1  UNL1       -0.2425
     10 C         143.4046  139.4492  159.7238 C.2     1  UNL1        0.2296
     11 O         143.4334  138.2886  160.6736 O.2     1  UNL1       -0.2745
     12 C         142.5007  138.1868  157.5480 C.ar    1  UNL1        0.1571
     13 C         141.1760  138.2069  156.8447 C.ar    1  UNL1        0.0369
     14 C         140.7008  136.9912  156.1055 C.ar    1  UNL1        0.0385
     15 C         139.3761  137.0113  155.4021 C.3     1  UNL1        0.0362
     16 C         141.5503  135.7555  156.0697 C.ar    1  UNL1        0.2725
     17 O         141.0751  134.5398  155.3305 O.2     1  UNL1       -0.2659
     18 N         142.8751  135.7354  156.7731 N.ar    1  UNL1       -0.2137
     19 C         143.7246  134.4996  156.7373 C.3     1  UNL1        0.1571
     20 N         143.3502  136.9511  157.5122 N.ar    1  UNL1       -0.1513
     21 C         145.2785  142.3554  164.0225 C.3     1  UNL1        0.1063
     22 C         144.4300  143.2869  164.8362 C.3     1  UNL1        0.1483
     23 O         145.0285  144.0271  165.9955 O.3     1  UNL1       -0.3786
     24 H         144.3494  144.5819  166.4101 H       1  UNL1        0.2108
     25 C         142.3761  141.3514  165.8537 C.3     1  UNL1        0.0306
     26 C         141.9560  142.5106  164.9994 C.ar    1  UNL1       -0.0238
     27 C         142.9829  143.4783  164.4906 C.ar    1  UNL1        0.0015
     28 C         142.5628  144.6375  163.6363 C.ar    1  UNL1       -0.0020
     29 C         141.1158  144.8289  163.2908 C.ar    1  UNL1        0.0060
     30 C         140.0888  143.8612  163.7995 C.ar    1  UNL1        0.0748
     31 C         140.5089  142.7020  164.6538 C.ar    1  UNL1        0.0233
     32 C         139.2803  141.9175  165.0074 C.3     1  UNL1        0.2352
     33 O         138.1008  142.5918  164.3716 O.3     1  UNL1       -0.4404
     34 C         138.6006  143.7931  163.6251 C.2     1  UNL1        0.3413
     35 O         137.7597  144.7570  162.8417 O.2     1  UNL1       -0.2449
@<TRIPOS>BOND
     1    25    26    1
     2    26    27   ar
     3    27    22    1
     4    22    23    1
     5    22    21    1
     6    21     1    1
     7     1     2    1
     8     2     3    1
     9     3     4    1
    10     4     5    1
    11     5     6    1
    12     4     7    1
    13     7     8    1
    14     8     9    1
    15     9    12    1
    16    12    13   ar
    17    13    14   ar
    18    14    15    1
    19    14    16   ar
    20    16    17    2
    21    16    18   ar
    22    18    19    1
    23    18    20   ar
    24     9    10   am
    25    10    11    2
    26    27    28   ar
    27    28    29   ar
    28    29    30   ar
    29    30    31   ar
    30    31    32    1
    31    32    33    1
    32    33    34    1
    33    34    35    2
    34    31    26   ar
    35     6     1    1
    36    20    12   ar
    37    34    30    1
    38    10     4    1
    39    23    24    1
@<TRIPOS>MOLECULE
*****
 35 39 0 0 0
SMALL
GASTEIGER

@<TRIPOS>ATOM
      1 N         140.1357  138.3806  161.4125 N.3     1  UNL1       -0.2703
      2 C         139.2891  139.0351  162.4636 C.3     1  UNL1        0.0727
      3 C         139.8754  139.3551  163.8067 C.3     1  UNL1        0.0260
      4 C         141.3082  139.0206  164.0986 C.3     1  UNL1        0.0737
      5 C         142.1547  138.3661  163.0475 C.3     1  UNL1        0.0260
      6 C         141.5685  138.0461  161.7044 C.3     1  UNL1        0.0727
      7 C         142.7175  138.7468  164.5334 C.3     1  UNL1        0.0306
      8 C         142.8684  139.2276  165.9463 C.3     1  UNL1        0.1001
      9 N         141.5523  139.7987  166.3846 N.am    1  UNL1       -0.2425
     10 C         140.5881  139.6707  165.2428 C.2     1  UNL1        0.2296
     11 O         139.1554  140.1149  165.2446 O.2     1  UNL1       -0.2745
     12 C         141.2531  140.3932  167.7288 C.ar    1  UNL1        0.1571
     13 C         139.9614  140.0718  168.4203 C.ar    1  UNL1        0.0369
     14 C         139.6622  140.6664  169.7646 C.ar    1  UNL1        0.0385
     15 C         138.3705  140.3451  170.4561 C.3     1  UNL1        0.0362
     16 C         140.6547  141.5823  170.4173 C.ar    1  UNL1        0.2725
     17 O         140.3554  142.1769  171.7616 O.2     1  UNL1       -0.2659
     18 N         141.9465  141.9037  169.7258 N.ar    1  UNL1       -0.2137
     19 C         142.9389  142.8196  170.3786 C.3     1  UNL1        0.1571
     20 N         142.2456  141.3091  168.3816 N.ar    1  UNL1       -0.1513
     21 C         139.5494  138.0605  160.0694 C.3     1  UNL1        0.1063
     22 C         139.4872  139.1176  159.0070 C.3     1  UNL1        0.1483
     23 O         139.2494  138.7310  157.5773 O.3     1  UNL1       -0.3786
     24 H         139.2381  139.5280  157.0245 H       1  UNL1        0.2108
     25 C         142.2019  140.3852  158.8530 C.3     1  UNL1        0.0306
     26 C         141.0201  141.1951  159.2973 C.ar    1  UNL1       -0.0238
     27 C         139.6628  140.5614  159.3743 C.ar    1  UNL1        0.0015
     28 C         138.4810  141.3713  159.8186 C.ar    1  UNL1       -0.0020
     29 C         138.6565  142.8149  160.1859 C.ar    1  UNL1        0.0060
     30 C         140.0138  143.4487  160.1089 C.ar    1  UNL1        0.0748
     31 C         141.1956  142.6388  159.6646 C.ar    1  UNL1        0.0233
     32 C         142.4025  143.5293  159.6868 C.3     1  UNL1        0.2352
     33 O         141.9666  144.8895  160.1447 O.3     1  UNL1       -0.4404
     34 C         140.4903  144.8397  160.4056 C.2     1  UNL1        0.3413
     35 O         139.6398  145.9806  160.8799 O.2     1  UNL1       -0.2449
@<TRIPOS>BOND
     1    25    26    1
     2    26    27   ar
     3    27    22    1
     4    22    23    1
     5    22    21    1
     6    21     1    1
     7     1     2    1
     8     2     3    1
     9     3     4    1
    10     4     5    1
    11     5     6    1
    12     4     7    1
    13     7     8    1
    14     8     9    1
    15     9    12    1
    16    12    13   ar
    17    13    14   ar
    18    14    15    1
    19    14    16   ar
    20    16    17    2
    21    16    18   ar
    22    18    19    1
    23    18    20   ar
    24     9    10   am
    25    10    11    2
    26    27    28   ar
    27    28    29   ar
    28    29    30   ar
    29    30    31   ar
    30    31    32    1
    31    32    33    1
    32    33    34    1
    33    34    35    2
    34    31    26   ar
    35     6     1    1
    36    20    12   ar
    37    34    30    1
    38    10     4    1
    39    23    24    1
@<TRIPOS>MOLECULE
*****
 35 39 0 0 0
SMALL
GASTEIGER

@<TRIPOS>ATOM
      1 N         144.9980  141.4890  163.2109 N.3     1  UNL1       -0.2703
      2 C         144.6999  141.8241  161.7795 C.3     1  UNL1        0.0727
      3 C         144.1019  140.7873  160.8754 C.3     1  UNL1        0.0260
      4 C         143.8021  139.4154  161.4026 C.3     1  UNL1        0.0737
      5 C         144.1003  139.0803  162.8339 C.3     1  UNL1        0.0260
      6 C         144.6983  140.1171  163.7381 C.3     1  UNL1        0.0727
      7 C         143.4499  138.0086  161.7860 C.3     1  UNL1        0.0306
      8 C         142.8815  137.3271  160.5766 C.3     1  UNL1        0.1001
      9 N         142.8824  138.3127  159.4458 N.am    1  UNL1       -0.2425
     10 C         143.4514  139.6033  159.9563 C.2     1  UNL1        0.2296
     11 O         143.6371  140.8610  159.1603 O.2     1  UNL1       -0.2745
     12 C         142.3992  138.0533  158.0498 C.ar    1  UNL1        0.1571
     13 C         142.9716  136.9156  157.2573 C.ar    1  UNL1        0.0369
     14 C         142.4884  136.6562  155.8611 C.ar    1  UNL1        0.0385
     15 C         143.0609  135.5185  155.0686 C.3     1  UNL1        0.0362
     16 C         141.4327  137.5343  155.2575 C.ar    1  UNL1        0.2725
     17 O         140.9495  137.2748  153.8613 O.2     1  UNL1       -0.2659
     18 N         140.8602  138.6720  156.0500 N.ar    1  UNL1       -0.2137
     19 C         139.8046  139.5502  155.4464 C.3     1  UNL1        0.1571
     20 N         141.3435  138.9314  157.4461 N.ar    1  UNL1       -0.1513
     21 C         145.5960  142.5258  164.1151 C.3     1  UNL1        0.1063
     22 C         144.7048  143.3980  164.9486 C.3     1  UNL1        0.1483
     23 O         145.2249  144.0073  166.2168 O.3     1  UNL1       -0.3786
     24 H         144.5264  144.5382  166.6306 H       1  UNL1        0.2108
     25 C         142.4509  141.8094  166.1304 C.3     1  UNL1        0.0306
     26 C         142.1664  142.8666  165.1050 C.ar    1  UNL1       -0.0238
     27 C         143.2933  143.6608  164.5141 C.ar    1  UNL1        0.0015
     28 C         143.0088  144.7180  163.4887 C.ar    1  UNL1       -0.0020
     29 C         141.5974  144.9808  163.0541 C.ar    1  UNL1        0.0060
     30 C         140.4705  144.1866  163.6450 C.ar    1  UNL1        0.0748
     31 C         140.7550  143.1294  164.6705 C.ar    1  UNL1        0.0233
     32 C         139.4491  142.5110  165.0732 C.3     1  UNL1        0.2352
     33 O         138.3576  143.1859  164.2967 O.3     1  UNL1       -0.4404
     34 C         138.9888  144.2214  163.4140 C.2     1  UNL1        0.3413
     35 O         138.2654  145.1320  162.4667 O.2     1  UNL1       -0.2449
@<TRIPOS>BOND
     1    25    26    1
     2    26    27   ar
     3    27    22    1
     4    22    23    1
     5    22    21    1
     6    21     1    1
     7     1     2    1
     8     2     3    1
     9     3     4    1
    10     4     5    1
    11     5     6    1
    12     4     7    1
    13     7     8    1
    14     8     9    1
    15     9    12    1
    16    12    13   ar
    17    13    14   ar
    18    14    15    1
    19    14    16   ar
    20    16    17    2
    21    16    18   ar
    22    18    19    1
    23    18    20   ar
    24     9    10   am
    25    10    11    2
    26    27    28   ar
    27    28    29   ar
    28    29    30   ar
    29    30    31   ar
    30    31    32    1
    31    32    33    1
    32    33    34    1
    33    34    35    2
    34    31    26   ar
    35     6     1    1
    36    20    12   ar
    37    34    30    1
    38    10     4    1
    39    23    24    1
@<TRIPOS>MOLECULE
*****
 35 39 0 0 0
SMALL
GASTEIGER

@<TRIPOS>ATOM
      1 N         138.2360  139.8343  164.2524 N.3     1  UNL1       -0.2703
      2 C         138.0505  141.2164  163.7000 C.3     1  UNL1        0.0727
      3 C         138.2078  141.4634  162.2289 C.3     1  UNL1        0.0260
      4 C         138.5505  140.3283  161.3102 C.3     1  UNL1        0.0737
      5 C         138.7359  138.9461  161.8626 C.3     1  UNL1        0.0260
      6 C         138.5787  138.6991  163.3338 C.3     1  UNL1        0.0727
      7 C         138.8896  139.2976  160.2744 C.3     1  UNL1        0.0306
      8 C         138.9449  139.9817  158.9405 C.3     1  UNL1        0.1001
      9 N         138.6400  141.4351  159.1520 N.am    1  UNL1       -0.2425
     10 C         138.3962  141.6493  160.6165 C.2     1  UNL1        0.2296
     11 O         138.0576  142.9552  161.2722 O.2     1  UNL1       -0.2745
     12 C         138.5880  142.4892  158.0862 C.ar    1  UNL1        0.1571
     13 C         137.5978  142.3743  156.9654 C.ar    1  UNL1        0.0369
     14 C         137.5458  143.4284  155.8995 C.ar    1  UNL1        0.0385
     15 C         136.5556  143.3135  154.7787 C.3     1  UNL1        0.0362
     16 C         138.4840  144.5975  155.9544 C.ar    1  UNL1        0.2725
     17 O         138.4320  145.6517  154.8885 O.2     1  UNL1       -0.2659
     18 N         139.4743  144.7125  157.0753 N.ar    1  UNL1       -0.2137
     19 C         140.4125  145.8816  157.1302 C.3     1  UNL1        0.1571
     20 N         139.5262  143.6583  158.1411 N.ar    1  UNL1       -0.1513
     21 C         138.0787  139.5872  165.7236 C.3     1  UNL1        0.1063
     22 C         139.2485  139.7715  166.6443 C.3     1  UNL1        0.1483
     23 O         139.0683  139.6190  168.1256 O.3     1  UNL1       -0.3786
     24 H         139.9164  139.7696  168.5717 H       1  UNL1        0.2108
     25 C         140.1156  142.6362  166.4395 C.3     1  UNL1        0.0306
     26 C         141.0319  141.5407  165.9813 C.ar    1  UNL1       -0.0238
     27 C         140.5984  140.1083  166.0837 C.ar    1  UNL1        0.0015
     28 C         141.5148  139.0128  165.6255 C.ar    1  UNL1       -0.0020
     29 C         142.8647  139.3495  165.0649 C.ar    1  UNL1        0.0060
     30 C         143.2983  140.7818  164.9625 C.ar    1  UNL1        0.0748
     31 C         142.3819  141.8774  165.4207 C.ar    1  UNL1        0.0233
     32 C         143.0780  143.1873  165.1983 C.3     1  UNL1        0.2352
     33 O         144.4246  142.9014  164.6026 O.3     1  UNL1       -0.4404
     34 C         144.5607  141.4147  164.4569 C.2     1  UNL1        0.3413
     35 O         145.7504  140.6884  163.9028 O.2     1  UNL1       -0.2449
@<TRIPOS>BOND
     1    25    26    1
     2    26    27   ar
     3    27    22    1
     4    22    23    1
     5    22    21    1
     6    21     1    1
     7     1     2    1
     8     2     3    1
     9     3     4    1
    10     4     5    1
    11     5     6    1
    12     4     7    1
    13     7     8    1
    14     8     9    1
    15     9    12    1
    16    12    13   ar
    17    13    14   ar
    18    14    15    1
    19    14    16   ar
    20    16    17    2
    21    16    18   ar
    22    18    19    1
    23    18    20   ar
    24     9    10   am
    25    10    11    2
    26    27    28   ar
    27    28    29   ar
    28    29    30   ar
    29    30    31   ar
    30    31    32    1
    31    32    33    1
    32    33    34    1
    33    34    35    2
    34    31    26   ar
    35     6     1    1
    36    20    12   ar
    37    34    30    1
    38    10     4    1
    39    23    24    1
@<TRIPOS>MOLECULE
*****
 35 39 0 0 0
SMALL
GASTEIGER

@<TRIPOS>ATOM
      1 N         143.0299  138.8925  165.2763 N.3     1  UNL1       -0.2703
      2 C         142.0645  138.1035  164.4425 C.3     1  UNL1        0.0727
      3 C         142.2093  138.0781  162.9498 C.3     1  UNL1        0.0260
      4 C         143.3196  138.8417  162.2908 C.3     1  UNL1        0.0737
      5 C         144.2850  139.6308  163.1246 C.3     1  UNL1        0.0260
      6 C         144.1402  139.6562  164.6174 C.3     1  UNL1        0.0727
      7 C         144.3742  139.5520  161.4951 C.3     1  UNL1        0.0306
      8 C         144.1416  139.2508  160.0441 C.3     1  UNL1        0.1001
      9 N         142.9431  138.3543  159.9431 N.am    1  UNL1       -0.2425
     10 C         142.4351  138.1015  161.3316 C.2     1  UNL1        0.2296
     11 O         141.2507  137.2568  161.6969 O.2     1  UNL1       -0.2745
     12 C         142.3559  137.8069  158.6762 C.ar    1  UNL1        0.1571
     13 C         141.1194  138.4251  158.0942 C.ar    1  UNL1        0.0369
     14 C         140.5321  137.8776  156.8272 C.ar    1  UNL1        0.0385
     15 C         139.2955  138.4959  156.2453 C.3     1  UNL1        0.0362
     16 C         141.1813  136.7118  156.1421 C.ar    1  UNL1        0.2725
     17 O         140.5941  136.1643  154.8750 O.2     1  UNL1       -0.2659
     18 N         142.4180  136.0935  156.7240 N.ar    1  UNL1       -0.2137
     19 C         143.0672  134.9277  156.0389 C.3     1  UNL1        0.1571
     20 N         143.0052  136.6411  157.9910 N.ar    1  UNL1       -0.1513
     21 C         142.8852  138.9180  166.7692 C.3     1  UNL1        0.1063
     22 C         142.0203  139.9556  167.4212 C.3     1  UNL1        0.1483
     23 O         142.0021  140.0857  168.9154 O.3     1  UNL1       -0.3786
     24 H         141.3957  140.7985  169.1706 H       1  UNL1        0.2108
     25 C         143.1670  142.5141  166.3538 C.3     1  UNL1        0.0306
     26 C         141.7469  142.1425  166.0454 C.ar    1  UNL1       -0.0238
     27 C         141.1735  140.8633  166.5790 C.ar    1  UNL1        0.0015
     28 C         139.7534  140.4917  166.2705 C.ar    1  UNL1       -0.0020
     29 C         138.9067  141.3993  165.4284 C.ar    1  UNL1        0.0060
     30 C         139.4800  142.6785  164.8947 C.ar    1  UNL1        0.0748
     31 C         140.9002  143.0501  165.2032 C.ar    1  UNL1        0.0233
     32 C         141.1889  144.3657  164.5431 C.3     1  UNL1        0.2352
     33 O         139.9472  144.8072  163.8266 O.3     1  UNL1       -0.4404
     34 C         138.8911  143.7645  164.0439 C.2     1  UNL1        0.3413
     35 O         137.4917  143.8012  163.5051 O.2     1  UNL1       -0.2449
@<TRIPOS>BOND
     1    25    26    1
     2    26    27   ar
     3    27    22    1
     4    22    23    1
     5    22    21    1
     6    21     1    1
     7     1     2    1
     8     2     3    1
     9     3     4    1
    10     4     5    1
    11     5     6    1
    12     4     7    1
    13     7     8    1
    14     8     9    1
    15     9    12    1
    16    12    13   ar
    17    13    14   ar
    18    14    15    1
    19    14    16   ar
    20    16    17    2
    21    16    18   ar
    22    18    19    1
    23    18    20   ar
    24     9    10   am
    25    10    11    2
    26    27    28   ar
    27    28    29   ar
    28    29    30   ar
    29    30    31   ar
    30    31    32    1
    31    32    33    1
    32    33    34    1
    33    34    35    2
    34    31    26   ar
    35     6     1    1
    36    20    12   ar
    37    34    30    1
    38    10     4    1
    39    23    24    1
@<TRIPOS>MOLECULE
*****
 35 39 0 0 0
SMALL
GASTEIGER

@<TRIPOS>ATOM
      1 N         138.4885  139.6409  164.5999 N.3     1  UNL1       -0.2703
      2 C         139.1944  138.5748  163.8158 C.3     1  UNL1        0.0727
      3 C         139.2866  138.6792  162.3223 C.3     1  UNL1        0.0260
      4 C         138.6728  139.8498  161.6130 C.3     1  UNL1        0.0737
      5 C         137.9668  140.9159  162.3971 C.3     1  UNL1        0.0260
      6 C         137.8747  140.8115  163.8906 C.3     1  UNL1        0.0727
      7 C         138.1105  140.9558  160.7701 C.3     1  UNL1        0.0306
      8 C         138.4336  140.6561  159.3362 C.3     1  UNL1        0.1001
      9 N         139.1956  139.3647  159.2930 N.am    1  UNL1       -0.2425
     10 C         139.3434  138.8664  160.7000 C.2     1  UNL1        0.2296
     11 O         140.0396  137.6061  161.1205 O.2     1  UNL1       -0.2745
     12 C         139.7181  138.6902  158.0594 C.ar    1  UNL1        0.1571
     13 C         141.1197  138.1567  158.0327 C.ar    1  UNL1        0.0369
     14 C         141.6422  137.4822  156.7990 C.ar    1  UNL1        0.0385
     15 C         143.0439  136.9487  156.7724 C.3     1  UNL1        0.0362
     16 C         140.7630  137.3410  155.5919 C.ar    1  UNL1        0.2725
     17 O         141.2854  136.6664  154.3582 O.2     1  UNL1       -0.2659
     18 N         139.3612  137.8744  155.6185 N.ar    1  UNL1       -0.2137
     19 C         138.4820  137.7333  154.4115 C.3     1  UNL1        0.1571
     20 N         138.8388  138.5490  156.8523 N.ar    1  UNL1       -0.1513
     21 C         138.3963  139.5366  166.0935 C.3     1  UNL1        0.1063
     22 C         139.5286  140.0197  166.9504 C.3     1  UNL1        0.1483
     23 O         139.3587  140.1079  168.4381 O.3     1  UNL1       -0.3786
     24 H         140.1791  140.4360  168.8384 H       1  UNL1        0.2108
     25 C         139.9834  142.8608  166.1009 C.3     1  UNL1        0.0306
     26 C         141.0584  141.8351  165.8949 C.ar    1  UNL1       -0.0238
     27 C         140.8310  140.4146  166.3196 C.ar    1  UNL1        0.0015
     28 C         141.9060  139.3890  166.1135 C.ar    1  UNL1       -0.0020
     29 C         143.2084  139.7839  165.4828 C.ar    1  UNL1        0.0060
     30 C         143.4357  141.2044  165.0580 C.ar    1  UNL1        0.0748
     31 C         142.3607  142.2300  165.2641 C.ar    1  UNL1        0.0233
     32 C         142.8685  143.5438  164.7481 C.3     1  UNL1        0.2352
     33 O         144.2573  143.3301  164.2232 O.3     1  UNL1       -0.4404
     34 C         144.6079  141.8843  164.4148 C.2     1  UNL1        0.3413
     35 O         145.9032  141.2328  164.0305 O.2     1  UNL1       -0.2449
@<TRIPOS>BOND
     1    25    26    1
     2    26    27   ar
     3    27    22    1
     4    22    23    1
     5    22    21    1
     6    21     1    1
     7     1     2    1
     8     2     3    1
     9     3     4    1
    10     4     5    1
    11     5     6    1
    12     4     7    1
    13     7     8    1
    14     8     9    1
    15     9    12    1
    16    12    13   ar
    17    13    14   ar
    18    14    15    1
    19    14    16   ar
    20    16    17    2
    21    16    18   ar
    22    18    19    1
    23    18    20   ar
    24     9    10   am
    25    10    11    2
    26    27    28   ar
    27    28    29   ar
    28    29    30   ar
    29    30    31   ar
    30    31    32    1
    31    32    33    1
    32    33    34    1
    33    34    35    2
    34    31    26   ar
    35     6     1    1
    36    20    12   ar
    37    34    30    1
    38    10     4    1
    39    23    24    1
@<TRIPOS>MOLECULE
*****
 35 39 0 0 0
SMALL
GASTEIGER

@<TRIPOS>ATOM
      1 N         144.4914  141.7418  161.7109 N.3     1  UNL1       -0.2703
      2 C         144.0029  142.6795  162.7748 C.3     1  UNL1        0.0727
      3 C         143.5913  142.1449  164.1144 C.3     1  UNL1        0.0260
      4 C         143.6683  140.6724  164.3902 C.3     1  UNL1        0.0737
      5 C         144.1569  139.7347  163.3263 C.3     1  UNL1        0.0260
      6 C         144.5684  140.2694  161.9866 C.3     1  UNL1        0.0727
      7 C         143.6906  139.2324  164.8095 C.3     1  UNL1        0.0306
      8 C         143.1983  139.1539  166.2243 C.3     1  UNL1        0.1001
      9 N         142.8718  140.5454  166.6794 N.am    1  UNL1       -0.2425
     10 C         143.1623  141.4839  165.5459 C.2     1  UNL1        0.2296
     11 O         142.9789  142.9725  165.5646 O.2     1  UNL1       -0.2745
     12 C         142.3469  140.9308  168.0306 C.ar    1  UNL1        0.1571
     13 C         143.0038  142.0362  168.8030 C.ar    1  UNL1        0.0369
     14 C         142.4789  142.4216  170.1543 C.ar    1  UNL1        0.0385
     15 C         143.1357  143.5270  170.9267 C.3     1  UNL1        0.0362
     16 C         141.2972  141.7015  170.7332 C.ar    1  UNL1        0.2725
     17 O         140.7723  142.0869  172.0845 O.2     1  UNL1       -0.2659
     18 N         140.6403  140.5961  169.9608 N.ar    1  UNL1       -0.2137
     19 C         139.4586  139.8760  170.5397 C.3     1  UNL1        0.1571
     20 N         141.1652  140.2108  168.6095 N.ar    1  UNL1       -0.1513
     21 C         144.9029  142.2764  160.3711 C.3     1  UNL1        0.1063
     22 C         143.8651  142.5612  159.3262 C.3     1  UNL1        0.1483
     23 O         144.2335  143.3334  158.0942 O.3     1  UNL1       -0.3786
     24 H         143.4526  143.4285  157.5267 H       1  UNL1        0.2108
     25 C         141.8187  144.3408  160.6089 C.3     1  UNL1        0.0306
     26 C         141.4357  142.9635  160.1547 C.ar    1  UNL1       -0.0238
     27 C         142.4589  142.0737  159.5134 C.ar    1  UNL1        0.0015
     28 C         142.0760  140.6963  159.0592 C.ar    1  UNL1       -0.0020
     29 C         140.6698  140.2088  159.2462 C.ar    1  UNL1        0.0060
     30 C         139.6466  141.0986  159.8875 C.ar    1  UNL1        0.0748
     31 C         140.0296  142.4760  160.3418 C.ar    1  UNL1        0.0233
     32 C         138.8140  143.1224  160.9370 C.3     1  UNL1        0.2352
     33 O         137.6797  142.1447  160.8507 O.3     1  UNL1       -0.4404
     34 C         138.1943  140.8939  160.2021 C.2     1  UNL1        0.3413
     35 O         137.3967  139.6558  159.9179 O.2     1  UNL1       -0.2449
@<TRIPOS>BOND
     1    25    26    1
     2    26    27   ar
     3    27    22    1
     4    22    23    1
     5    22    21    1
     6    21     1    1
     7     1     2    1
     8     2     3    1
     9     3     4    1
    10     4     5    1
    11     5     6    1
    12     4     7    1
    13     7     8    1
    14     8     9    1
    15     9    12    1
    16    12    13   ar
    17    13    14   ar
    18    14    15    1
    19    14    16   ar
    20    16    17    2
    21    16    18   ar
    22    18    19    1
    23    18    20   ar
    24     9    10   am
    25    10    11    2
    26    27    28   ar
    27    28    29   ar
    28    29    30   ar
    29    30    31   ar
    30    31    32    1
    31    32    33    1
    32    33    34    1
    33    34    35    2
    34    31    26   ar
    35     6     1    1
    36    20    12   ar
    37    34    30    1
    38    10     4    1
    39    23    24    1
