@<TRIPOS>MOLECULE
*****
 31 35 0 0 0
SMALL
GASTEIGER

@<TRIPOS>ATOM
      1 C         141.8769  143.9992  161.4470 C.ar    1  UNL1        0.1353
      2 C         141.6106  143.1013  162.6187 C.ar    1  UNL1        0.0346
      3 C         140.5557  143.4681  163.6202 C.ar    1  UNL1        0.0058
      4 C         139.7674  144.7327  163.4499 C.ar    1  UNL1        0.0208
      5 C         140.0338  145.6307  162.2783 C.ar    1  UNL1        0.1003
      6 N         141.0885  145.2639  161.2768 N.ar    1  UNL1       -0.2290
      7 C         146.6086  142.1344  156.7308 C.3     1  UNL1        0.0034
      8 C         145.2278  141.6407  157.0461 C.3     1  UNL1        0.0367
      9 C         145.3386  140.6280  155.9450 C.3     1  UNL1        0.0034
     10 C         143.8469  141.1468  157.3613 C.3     1  UNL1        0.0965
     11 N         143.7361  142.1595  158.4622 N.am    1  UNL1       -0.2638
     12 C         142.6813  142.5264  159.4637 C.2     1  UNL1        0.3087
     13 O         141.3762  141.7873  159.4833 O.2     1  UNL1       -0.2522
     14 N         142.9317  143.6324  160.4456 N.am    1  UNL1       -0.2535
     15 C         145.1170  142.6533  158.1470 C.3     1  UNL1        0.0965
     16 H         143.7883  144.1175  160.4328 H       1  UNL1        0.1578
     17 C         140.2894  142.5702  164.7919 C.ar    1  UNL1        0.0188
     18 C         140.5852  142.8842  166.2285 C.ar    1  UNL1        0.0758
     19 N         140.1590  141.7086  167.0571 N.ar    1  UNL1       -0.3265
     20 C         139.5999  140.6681  166.1325 C.ar    1  UNL1        0.0793
     21 C         139.0278  139.3047  166.3846 C.ar    1  UNL1        0.1160
     22 N         138.5362  138.4737  165.2367 N.ar    1  UNL1       -0.2408
     23 C         138.6168  139.0061  163.8367 C.ar    1  UNL1        0.0990
     24 C         139.1889  140.3696  163.5846 C.ar    1  UNL1        0.0222
     25 C         139.6804  141.2006  164.7325 C.ar    1  UNL1        0.0203
     26 C         140.2722  141.5937  168.5484 C.3     1  UNL1        0.0906
     27 C         140.2015  142.8245  169.4030 C.3     1  UNL1        0.0547
     28 C         140.3146  142.7096  170.8943 C.3     1  UNL1        0.1441
     29 O         140.4985  141.3640  171.5310 O.3     1  UNL1       -0.3536
     30 C         140.5693  140.1333  170.6765 C.3     1  UNL1        0.1441
     31 C         140.4561  140.2482  169.1851 C.3     1  UNL1        0.0547
@<TRIPOS>BOND
     1     7     8    1
     2     8     9    1
     3     8    10    1
     4    10    11    1
     5    11    12   am
     6    12    13    2
     7    12    14   am
     8    14     1    1
     9     1     2   ar
    10     2     3   ar
    11     3    17    1
    12    17    18   ar
    13    18    19   ar
    14    19    26    1
    15    26    27    1
    16    27    28    1
    17    28    29    1
    18    29    30    1
    19    30    31    1
    20    19    20   ar
    21    20    21   ar
    22    21    22   ar
    23    22    23   ar
    24    23    24   ar
    25    24    25   ar
    26     3     4   ar
    27     4     5   ar
    28     5     6   ar
    29    11    15    1
    30    15     8    1
    31     6     1   ar
    32    25    17   ar
    33    31    26    1
    34    25    20   ar
    35    14    16    1
@<TRIPOS>MOLECULE
*****
 31 35 0 0 0
SMALL
GASTEIGER

@<TRIPOS>ATOM
      1 C         142.5451  143.8279  161.4577 C.ar    1  UNL1        0.1353
      2 C         141.7677  143.3222  162.6367 C.ar    1  UNL1        0.0346
      3 C         142.4662  142.5639  163.7263 C.ar    1  UNL1        0.0058
      4 C         143.9420  142.3113  163.6368 C.ar    1  UNL1        0.0208
      5 C         144.7194  142.8170  162.4579 C.ar    1  UNL1        0.1003
      6 N         144.0210  143.5753  161.3683 N.ar    1  UNL1       -0.2290
      7 C         139.3005  147.1318  156.2939 C.3     1  UNL1        0.0034
      8 C         139.7216  145.7059  156.4918 C.3     1  UNL1        0.0367
      9 C         139.1549  145.3522  155.1488 C.3     1  UNL1        0.0034
     10 C         140.1428  144.2799  156.6896 C.3     1  UNL1        0.0965
     11 N         140.7095  144.6336  158.0326 N.am    1  UNL1       -0.2638
     12 C         141.4081  143.8754  159.1222 C.2     1  UNL1        0.3087
     13 O         141.6682  142.4064  158.9657 O.2     1  UNL1       -0.2522
     14 N         141.8465  144.5861  160.3682 N.am    1  UNL1       -0.2535
     15 C         140.2884  146.0596  157.8348 C.3     1  UNL1        0.0965
     16 H         141.6758  145.5503  160.4710 H       1  UNL1        0.1578
     17 C         141.6888  142.0582  164.9053 C.ar    1  UNL1        0.0188
     18 C         141.8784  142.4789  166.3325 C.ar    1  UNL1        0.0758
     19 N         140.8921  141.7237  167.1732 N.ar    1  UNL1       -0.3265
     20 C         140.0929  140.8362  166.2656 C.ar    1  UNL1        0.0793
     21 C         138.9805  139.8666  166.5344 C.ar    1  UNL1        0.1160
     22 N         138.3605  139.1037  165.4015 N.ar    1  UNL1       -0.2408
     23 C         138.8530  139.3104  163.9998 C.ar    1  UNL1        0.0990
     24 C         139.9654  140.2800  163.7310 C.ar    1  UNL1        0.0222
     25 C         140.5854  141.0429  164.8639 C.ar    1  UNL1        0.0203
     26 C         140.7328  141.8361  168.6605 C.3     1  UNL1        0.0906
     27 C         140.2771  143.1287  169.2704 C.3     1  UNL1        0.0547
     28 C         140.1178  143.2411  170.7577 C.3     1  UNL1        0.1441
     29 O         140.4143  142.0612  171.6351 O.3     1  UNL1       -0.3536
     30 C         140.8700  140.7688  171.0252 C.3     1  UNL1        0.1441
     31 C         141.0293  140.6563  169.5379 C.3     1  UNL1        0.0547
@<TRIPOS>BOND
     1     7     8    1
     2     8     9    1
     3     8    10    1
     4    10    11    1
     5    11    12   am
     6    12    13    2
     7    12    14   am
     8    14     1    1
     9     1     2   ar
    10     2     3   ar
    11     3    17    1
    12    17    18   ar
    13    18    19   ar
    14    19    26    1
    15    26    27    1
    16    27    28    1
    17    28    29    1
    18    29    30    1
    19    30    31    1
    20    19    20   ar
    21    20    21   ar
    22    21    22   ar
    23    22    23   ar
    24    23    24   ar
    25    24    25   ar
    26     3     4   ar
    27     4     5   ar
    28     5     6   ar
    29    11    15    1
    30    15     8    1
    31     6     1   ar
    32    25    17   ar
    33    31    26    1
    34    25    20   ar
    35    14    16    1
@<TRIPOS>MOLECULE
*****
 31 35 0 0 0
SMALL
GASTEIGER

@<TRIPOS>ATOM
      1 C         140.7336  139.3100  161.0844 C.ar    1  UNL1        0.1353
      2 C         140.4081  139.7398  162.4842 C.ar    1  UNL1        0.0346
      3 C         141.3315  139.3843  163.6117 C.ar    1  UNL1        0.0058
      4 C         142.5802  138.5992  163.3393 C.ar    1  UNL1        0.0208
      5 C         142.9056  138.1695  161.9395 C.ar    1  UNL1        0.1003
      6 N         141.9823  138.5249  160.8120 N.ar    1  UNL1       -0.2290
      7 C         136.5331  141.1813  155.8918 C.3     1  UNL1        0.0034
      8 C         137.4822  141.9453  156.7666 C.3     1  UNL1        0.0367
      9 C         137.1255  143.2122  156.0470 C.3     1  UNL1        0.0034
     10 C         138.4314  142.7095  157.6414 C.3     1  UNL1        0.0965
     11 N         138.7880  141.4426  158.3609 N.am    1  UNL1       -0.2638
     12 C         139.7114  141.0870  159.4884 C.2     1  UNL1        0.3087
     13 O         140.5359  142.1529  160.1472 O.2     1  UNL1       -0.2522
     14 N         139.8102  139.6655  159.9570 N.am    1  UNL1       -0.2535
     15 C         137.8389  140.6784  157.4861 C.3     1  UNL1        0.0965
     16 H         139.2691  138.9659  159.5246 H       1  UNL1        0.1578
     17 C         141.0061  139.8140  165.0115 C.ar    1  UNL1        0.0188
     18 C         141.7664  140.8196  165.8243 C.ar    1  UNL1        0.0758
     19 N         141.0933  140.9406  167.1594 N.ar    1  UNL1       -0.3265
     20 C         139.9171  140.0098  167.1717 C.ar    1  UNL1        0.0793
     21 C         138.8882  139.7064  168.2201 C.ar    1  UNL1        0.1160
     22 N         137.8054  138.7066  167.9410 N.ar    1  UNL1       -0.2408
     23 C         137.7515  138.0103  166.6135 C.ar    1  UNL1        0.0990
     24 C         138.7804  138.3138  165.5651 C.ar    1  UNL1        0.0222
     25 C         139.8632  139.3135  165.8442 C.ar    1  UNL1        0.0203
     26 C         141.5214  141.8353  168.2847 C.3     1  UNL1        0.0906
     27 C         140.5653  142.8471  168.8437 C.3     1  UNL1        0.0547
     28 C         140.9933  143.7418  169.9690 C.3     1  UNL1        0.1441
     29 O         142.3774  143.6249  170.5353 O.3     1  UNL1       -0.3536
     30 C         143.3334  142.6132  169.9763 C.3     1  UNL1        0.1441
     31 C         142.9053  141.7184  168.8510 C.3     1  UNL1        0.0547
@<TRIPOS>BOND
     1     7     8    1
     2     8     9    1
     3     8    10    1
     4    10    11    1
     5    11    12   am
     6    12    13    2
     7    12    14   am
     8    14     1    1
     9     1     2   ar
    10     2     3   ar
    11     3    17    1
    12    17    18   ar
    13    18    19   ar
    14    19    26    1
    15    26    27    1
    16    27    28    1
    17    28    29    1
    18    29    30    1
    19    30    31    1
    20    19    20   ar
    21    20    21   ar
    22    21    22   ar
    23    22    23   ar
    24    23    24   ar
    25    24    25   ar
    26     3     4   ar
    27     4     5   ar
    28     5     6   ar
    29    11    15    1
    30    15     8    1
    31     6     1   ar
    32    25    17   ar
    33    31    26    1
    34    25    20   ar
    35    14    16    1
@<TRIPOS>MOLECULE
*****
 31 35 0 0 0
SMALL
GASTEIGER

@<TRIPOS>ATOM
      1 C         143.8470  141.0872  161.3122 C.ar    1  UNL1        0.1353
      2 C         142.7970  141.4373  162.3246 C.ar    1  UNL1        0.0346
      3 C         143.1981  141.9797  163.6644 C.ar    1  UNL1        0.0058
      4 C         144.6492  142.1720  163.9916 C.ar    1  UNL1        0.0208
      5 C         145.6993  141.8219  162.9793 C.ar    1  UNL1        0.1003
      6 N         145.2981  141.2795  161.6395 N.ar    1  UNL1       -0.2290
      7 C         142.0079  138.3584  155.2064 C.3     1  UNL1        0.0034
      8 C         142.3587  137.7541  156.5337 C.3     1  UNL1        0.0367
      9 C         142.1420  136.3825  155.9663 C.3     1  UNL1        0.0034
     10 C         142.7094  137.1496  157.8609 C.3     1  UNL1        0.0965
     11 N         142.9261  138.5211  158.4282 N.am    1  UNL1       -0.2638
     12 C         143.3273  139.0636  159.7680 C.2     1  UNL1        0.3087
     13 O         143.6100  138.1248  160.9032 O.2     1  UNL1       -0.2522
     14 N         143.4458  140.5449  159.9725 N.am    1  UNL1       -0.2535
     15 C         142.5753  139.1256  157.1010 C.3     1  UNL1        0.0965
     16 H         143.2602  141.1611  159.2274 H       1  UNL1        0.1578
     17 C         142.1481  142.3298  164.6768 C.ar    1  UNL1        0.0188
     18 C         142.0595  141.7961  166.0758 C.ar    1  UNL1        0.0758
     19 N         140.8590  142.4115  166.7315 N.ar    1  UNL1       -0.3265
     20 C         140.2056  143.3256  165.7377 C.ar    1  UNL1        0.0793
     21 C         138.9881  144.1974  165.8251 C.ar    1  UNL1        0.1160
     22 N         138.5674  145.0187  164.6425 N.ar    1  UNL1       -0.2408
     23 C         139.3641  144.9682  163.3726 C.ar    1  UNL1        0.0990
     24 C         140.5816  144.0964  163.2853 C.ar    1  UNL1        0.0222
     25 C         141.0023  143.2751  164.4678 C.ar    1  UNL1        0.0203
     26 C         140.3935  142.1575  168.1346 C.3     1  UNL1        0.0906
     27 C         140.4170  143.2661  169.1449 C.3     1  UNL1        0.0547
     28 C         139.9515  143.0121  170.5481 C.3     1  UNL1        0.1441
     29 O         139.4626  141.6495  170.9410 O.3     1  UNL1       -0.3536
     30 C         139.4391  140.5410  169.9307 C.3     1  UNL1        0.1441
     31 C         139.9046  140.7950  168.5276 C.3     1  UNL1        0.0547
@<TRIPOS>BOND
     1     7     8    1
     2     8     9    1
     3     8    10    1
     4    10    11    1
     5    11    12   am
     6    12    13    2
     7    12    14   am
     8    14     1    1
     9     1     2   ar
    10     2     3   ar
    11     3    17    1
    12    17    18   ar
    13    18    19   ar
    14    19    26    1
    15    26    27    1
    16    27    28    1
    17    28    29    1
    18    29    30    1
    19    30    31    1
    20    19    20   ar
    21    20    21   ar
    22    21    22   ar
    23    22    23   ar
    24    23    24   ar
    25    24    25   ar
    26     3     4   ar
    27     4     5   ar
    28     5     6   ar
    29    11    15    1
    30    15     8    1
    31     6     1   ar
    32    25    17   ar
    33    31    26    1
    34    25    20   ar
    35    14    16    1
@<TRIPOS>MOLECULE
*****
 31 35 0 0 0
SMALL
GASTEIGER

@<TRIPOS>ATOM
      1 C         143.6073  140.5360  161.6078 C.ar    1  UNL1        0.1353
      2 C         142.6530  140.4190  162.7592 C.ar    1  UNL1        0.0346
      3 C         143.0947  140.8002  164.1412 C.ar    1  UNL1        0.0058
      4 C         144.4906  141.2984  164.3716 C.ar    1  UNL1        0.0208
      5 C         145.4449  141.4155  163.2202 C.ar    1  UNL1        0.1003
      6 N         145.0032  141.0343  161.8384 N.ar    1  UNL1       -0.2290
      7 C         141.6131  138.5454  155.2699 C.3     1  UNL1        0.0034
      8 C         142.1351  137.7976  156.4608 C.3     1  UNL1        0.0367
      9 C         142.0324  136.5104  155.6973 C.3     1  UNL1        0.0034
     10 C         142.6571  137.0496  157.6516 C.3     1  UNL1        0.0965
     11 N         142.7598  138.3367  158.4149 N.am    1  UNL1       -0.2638
     12 C         143.2015  138.7180  159.7969 C.2     1  UNL1        0.3087
     13 O         143.6792  137.6624  160.7496 O.2     1  UNL1       -0.2522
     14 N         143.1656  140.1549  160.2260 N.am    1  UNL1       -0.2535
     15 C         142.2378  139.0847  157.2241 C.3     1  UNL1        0.0965
     16 H         142.8521  140.8477  159.6007 H       1  UNL1        0.1578
     17 C         142.1405  140.6831  165.2926 C.ar    1  UNL1        0.0188
     18 C         142.2989  141.3271  166.6380 C.ar    1  UNL1        0.0758
     19 N         141.1165  140.9435  167.4776 N.ar    1  UNL1       -0.3265
     20 C         140.2274  140.0625  166.6510 C.ar    1  UNL1        0.0793
     21 C         138.9233  139.3860  166.9536 C.ar    1  UNL1        0.1160
     22 N         138.2520  138.5486  165.9057 N.ar    1  UNL1       -0.2408
     23 C         138.8848  138.3877  164.5553 C.ar    1  UNL1        0.0990
     24 C         140.1889  139.0642  164.2527 C.ar    1  UNL1        0.0222
     25 C         140.8602  139.9016  165.3006 C.ar    1  UNL1        0.0203
     26 C         140.8671  141.3666  168.8949 C.3     1  UNL1        0.0906
     27 C         140.3395  142.7404  169.1857 C.3     1  UNL1        0.0547
     28 C         140.0900  143.1635  170.6030 C.3     1  UNL1        0.1441
     29 O         140.3682  142.2130  171.7295 O.3     1  UNL1       -0.3536
     30 C         140.8958  140.8393  171.4387 C.3     1  UNL1        0.1441
     31 C         141.1453  140.4162  170.0214 C.3     1  UNL1        0.0547
@<TRIPOS>BOND
     1     7     8    1
     2     8     9    1
     3     8    10    1
     4    10    11    1
     5    11    12   am
     6    12    13    2
     7    12    14   am
     8    14     1    1
     9     1     2   ar
    10     2     3   ar
    11     3    17    1
    12    17    18   ar
    13    18    19   ar
    14    19    26    1
    15    26    27    1
    16    27    28    1
    17    28    29    1
    18    29    30    1
    19    30    31    1
    20    19    20   ar
    21    20    21   ar
    22    21    22   ar
    23    22    23   ar
    24    23    24   ar
    25    24    25   ar
    26     3     4   ar
    27     4     5   ar
    28     5     6   ar
    29    11    15    1
    30    15     8    1
    31     6     1   ar
    32    25    17   ar
    33    31    26    1
    34    25    20   ar
    35    14    16    1
@<TRIPOS>MOLECULE
*****
 31 35 0 0 0
SMALL
GASTEIGER

@<TRIPOS>ATOM
      1 C         143.3752  139.6235  159.8883 C.ar    1  UNL1        0.1353
      2 C         142.8228  139.5731  161.2819 C.ar    1  UNL1        0.0346
      3 C         142.8349  140.8045  162.1385 C.ar    1  UNL1        0.0058
      4 C         143.3994  142.0862  161.6014 C.ar    1  UNL1        0.0208
      5 C         143.9518  142.1366  160.2077 C.ar    1  UNL1        0.1003
      6 N         143.9397  140.9053  159.3512 N.ar    1  UNL1       -0.2290
      7 C         143.1151  134.0049  155.8297 C.3     1  UNL1        0.0034
      8 C         142.2165  135.1954  155.9885 C.3     1  UNL1        0.0367
      9 C         141.3006  134.6444  154.9361 C.3     1  UNL1        0.0034
     10 C         141.3178  136.3859  156.1473 C.3     1  UNL1        0.0965
     11 N         142.2337  136.9367  157.1998 N.am    1  UNL1       -0.2638
     12 C         142.2458  138.1682  158.0563 C.2     1  UNL1        0.3087
     13 O         141.1408  139.1755  157.9374 O.2     1  UNL1       -0.2522
     14 N         143.3631  138.3922  159.0318 N.am    1  UNL1       -0.2535
     15 C         143.1324  135.7463  157.0410 C.3     1  UNL1        0.0965
     16 H         144.0884  137.7311  159.1099 H       1  UNL1        0.1578
     17 C         142.2824  140.7541  163.5322 C.ar    1  UNL1        0.0188
     18 C         143.0716  140.9013  164.7993 C.ar    1  UNL1        0.0758
     19 N         142.1207  140.7858  165.9536 N.ar    1  UNL1       -0.3265
     20 C         140.7438  140.5672  165.3999 C.ar    1  UNL1        0.0793
     21 C         139.4120  140.3835  166.0651 C.ar    1  UNL1        0.1160
     22 N         138.1802  140.1801  165.2337 N.ar    1  UNL1       -0.2408
     23 C         138.2802  140.1605  163.7372 C.ar    1  UNL1        0.0990
     24 C         139.6120  140.3443  163.0720 C.ar    1  UNL1        0.0222
     25 C         140.8438  140.5476  163.9034 C.ar    1  UNL1        0.0203
     26 C         142.4830  140.8735  167.4065 C.3     1  UNL1        0.0906
     27 C         142.3179  139.6757  168.2943 C.3     1  UNL1        0.0547
     28 C         142.6802  139.7634  169.7473 C.3     1  UNL1        0.1441
     29 O         143.2075  141.0489  170.3125 O.3     1  UNL1       -0.3536
     30 C         143.3726  142.2466  169.4247 C.3     1  UNL1        0.1441
     31 C         143.0103  142.1589  167.9718 C.3     1  UNL1        0.0547
@<TRIPOS>BOND
     1     7     8    1
     2     8     9    1
     3     8    10    1
     4    10    11    1
     5    11    12   am
     6    12    13    2
     7    12    14   am
     8    14     1    1
     9     1     2   ar
    10     2     3   ar
    11     3    17    1
    12    17    18   ar
    13    18    19   ar
    14    19    26    1
    15    26    27    1
    16    27    28    1
    17    28    29    1
    18    29    30    1
    19    30    31    1
    20    19    20   ar
    21    20    21   ar
    22    21    22   ar
    23    22    23   ar
    24    23    24   ar
    25    24    25   ar
    26     3     4   ar
    27     4     5   ar
    28     5     6   ar
    29    11    15    1
    30    15     8    1
    31     6     1   ar
    32    25    17   ar
    33    31    26    1
    34    25    20   ar
    35    14    16    1
@<TRIPOS>MOLECULE
*****
 31 35 0 0 0
SMALL
GASTEIGER

@<TRIPOS>ATOM
      1 C         142.8826  139.2075  159.3528 C.ar    1  UNL1        0.1353
      2 C         142.0115  139.4714  160.5451 C.ar    1  UNL1        0.0346
      3 C         141.9099  140.8584  161.1075 C.ar    1  UNL1        0.0058
      4 C         142.6794  141.9812  160.4776 C.ar    1  UNL1        0.0208
      5 C         143.5506  141.7173  159.2853 C.ar    1  UNL1        0.1003
      6 N         143.6522  140.3305  158.7230 N.ar    1  UNL1       -0.2290
      7 C         143.2329  132.8685  156.5596 C.3     1  UNL1        0.0034
      8 C         142.6323  134.1611  156.0924 C.3     1  UNL1        0.0367
      9 C         142.1753  133.4924  154.8299 C.3     1  UNL1        0.0034
     10 C         142.0317  135.4538  155.6252 C.3     1  UNL1        0.0965
     11 N         142.4888  136.1224  156.8877 N.am    1  UNL1       -0.2638
     12 C         142.3872  137.5094  157.4501 C.2     1  UNL1        0.3087
     13 O         141.6888  138.5849  156.6720 O.2     1  UNL1       -0.2522
     14 N         142.9842  137.8207  158.7905 N.am    1  UNL1       -0.2535
     15 C         143.0894  134.8298  157.3549 C.3     1  UNL1        0.0965
     16 H         143.4426  137.1148  159.3012 H       1  UNL1        0.1578
     17 C         141.0387  141.1223  162.2997 C.ar    1  UNL1        0.0188
     18 C         140.7899  140.1760  163.4366 C.ar    1  UNL1        0.0758
     19 N         139.8608  140.8477  164.4039 N.ar    1  UNL1       -0.3265
     20 C         139.5355  142.2092  163.8648 C.ar    1  UNL1        0.0793
     21 C         138.6704  143.3163  164.3901 C.ar    1  UNL1        0.1160
     22 N         138.5333  144.5931  163.6149 N.ar    1  UNL1       -0.2408
     23 C         139.2613  144.7627  162.3144 C.ar    1  UNL1        0.0990
     24 C         140.1264  143.6557  161.7892 C.ar    1  UNL1        0.0222
     25 C         140.2635  142.3789  162.5644 C.ar    1  UNL1        0.0203
     26 C         139.3473  140.2610  165.6853 C.3     1  UNL1        0.0906
     27 C         139.8771  140.7515  167.0002 C.3     1  UNL1        0.0547
     28 C         139.3635  140.1648  168.2816 C.3     1  UNL1        0.1441
     29 O         138.3202  139.0877  168.2483 O.3     1  UNL1       -0.3536
     30 C         137.7904  138.5972  166.9334 C.3     1  UNL1        0.1441
     31 C         138.3040  139.1839  165.6520 C.3     1  UNL1        0.0547
@<TRIPOS>BOND
     1     7     8    1
     2     8     9    1
     3     8    10    1
     4    10    11    1
     5    11    12   am
     6    12    13    2
     7    12    14   am
     8    14     1    1
     9     1     2   ar
    10     2     3   ar
    11     3    17    1
    12    17    18   ar
    13    18    19   ar
    14    19    26    1
    15    26    27    1
    16    27    28    1
    17    28    29    1
    18    29    30    1
    19    30    31    1
    20    19    20   ar
    21    20    21   ar
    22    21    22   ar
    23    22    23   ar
    24    23    24   ar
    25    24    25   ar
    26     3     4   ar
    27     4     5   ar
    28     5     6   ar
    29    11    15    1
    30    15     8    1
    31     6     1   ar
    32    25    17   ar
    33    31    26    1
    34    25    20   ar
    35    14    16    1
@<TRIPOS>MOLECULE
*****
 31 35 0 0 0
SMALL
GASTEIGER

@<TRIPOS>ATOM
      1 C         136.2516  140.5535  156.0298 C.ar    1  UNL1        0.1353
      2 C         136.8456  141.8997  156.3211 C.ar    1  UNL1        0.0346
      3 C         138.2013  142.2532  155.7851 C.ar    1  UNL1        0.0058
      4 C         138.9628  141.2605  154.9577 C.ar    1  UNL1        0.0208
      5 C         138.3688  139.9143  154.6664 C.ar    1  UNL1        0.1003
      6 N         137.0131  139.5608  155.2024 N.ar    1  UNL1       -0.2290
      7 C         129.8847  139.0349  158.3243 C.3     1  UNL1        0.0034
      8 C         130.3894  139.7943  157.1334 C.3     1  UNL1        0.0367
      9 C         128.9769  140.0540  156.7005 C.3     1  UNL1        0.0034
     10 C         130.8941  140.5539  155.9424 C.3     1  UNL1        0.0965
     11 N         132.3065  140.2941  156.3754 N.am    1  UNL1       -0.2638
     12 C         133.6623  140.6475  155.8393 C.2     1  UNL1        0.3087
     13 O         133.7842  141.4484  154.5769 O.2     1  UNL1       -0.2522
     14 N         134.8960  140.2001  156.5658 N.am    1  UNL1       -0.2535
     15 C         131.8018  139.5346  157.5664 C.3     1  UNL1        0.0965
     16 H         134.8159  139.6744  157.3944 H       1  UNL1        0.1578
     17 C         138.7953  143.5994  156.0764 C.ar    1  UNL1        0.0188
     18 C         138.4235  144.8903  155.4091 C.ar    1  UNL1        0.0758
     19 N         139.2638  145.9797  156.0065 N.ar    1  UNL1       -0.3265
     20 C         140.1551  145.3621  157.0430 C.ar    1  UNL1        0.0793
     21 C         141.1928  145.9493  157.9531 C.ar    1  UNL1        0.1160
     22 N         141.9410  145.0653  158.9063 N.ar    1  UNL1       -0.2408
     23 C         141.6515  143.5942  158.9495 C.ar    1  UNL1        0.0990
     24 C         140.6137  143.0070  158.0395 C.ar    1  UNL1        0.0222
     25 C         139.8655  143.8910  157.0862 C.ar    1  UNL1        0.0203
     26 C         139.2206  147.4319  155.6331 C.3     1  UNL1        0.0906
     27 C         138.5737  148.4241  156.5535 C.3     1  UNL1        0.0547
     28 C         138.5304  149.8762  156.1800 C.3     1  UNL1        0.1441
     29 O         139.1341  150.3361  154.8861 O.3     1  UNL1       -0.3536
     30 C         139.7810  149.3440  153.9658 C.3     1  UNL1        0.1441
     31 C         139.8242  147.8918  154.3393 C.3     1  UNL1        0.0547
@<TRIPOS>BOND
     1     7     8    1
     2     8     9    1
     3     8    10    1
     4    10    11    1
     5    11    12   am
     6    12    13    2
     7    12    14   am
     8    14     1    1
     9     1     2   ar
    10     2     3   ar
    11     3    17    1
    12    17    18   ar
    13    18    19   ar
    14    19    26    1
    15    26    27    1
    16    27    28    1
    17    28    29    1
    18    29    30    1
    19    30    31    1
    20    19    20   ar
    21    20    21   ar
    22    21    22   ar
    23    22    23   ar
    24    23    24   ar
    25    24    25   ar
    26     3     4   ar
    27     4     5   ar
    28     5     6   ar
    29    11    15    1
    30    15     8    1
    31     6     1   ar
    32    25    17   ar
    33    31    26    1
    34    25    20   ar
    35    14    16    1
@<TRIPOS>MOLECULE
*****
 31 35 0 0 0
SMALL
GASTEIGER

@<TRIPOS>ATOM
      1 C         139.3348  143.7721  161.1794 C.ar    1  UNL1        0.1353
      2 C         139.7434  142.9235  162.3468 C.ar    1  UNL1        0.0346
      3 C         140.4154  143.5515  163.5318 C.ar    1  UNL1        0.0058
      4 C         140.6787  145.0281  163.5493 C.ar    1  UNL1        0.0208
      5 C         140.2702  145.8767  162.3818 C.ar    1  UNL1        0.1003
      6 N         139.5982  145.2487  161.1969 N.ar    1  UNL1       -0.2290
      7 C         136.4280  140.9006  155.5746 C.3     1  UNL1        0.0034
      8 C         137.7852  141.4816  155.8397 C.3     1  UNL1        0.0367
      9 C         138.1922  141.1745  154.4290 C.3     1  UNL1        0.0034
     10 C         139.1425  142.0627  156.1048 C.3     1  UNL1        0.0965
     11 N         138.7354  142.3698  157.5154 N.am    1  UNL1       -0.2638
     12 C         139.4074  142.9979  158.7005 C.2     1  UNL1        0.3087
     13 O         140.8237  143.4797  158.5914 O.2     1  UNL1       -0.2522
     14 N         138.6629  143.1441  159.9945 N.am    1  UNL1       -0.2535
     15 C         137.3782  141.7887  157.2504 C.3     1  UNL1        0.0965
     16 H         137.7333  142.8279  160.0661 H       1  UNL1        0.1578
     17 C         140.8240  142.7029  164.6993 C.ar    1  UNL1        0.0188
     18 C         140.3005  142.8196  166.1001 C.ar    1  UNL1        0.0758
     19 N         140.9808  141.7774  166.9374 N.ar    1  UNL1       -0.3265
     20 C         141.9247  141.0166  166.0540 C.ar    1  UNL1        0.0793
     21 C         142.8599  139.8769  166.3305 C.ar    1  UNL1        0.1160
     22 N         143.6981  139.3092  165.2237 N.ar    1  UNL1       -0.2408
     23 C         143.6012  139.8813  163.8405 C.ar    1  UNL1        0.0990
     24 C         142.6660  141.0209  163.5640 C.ar    1  UNL1        0.0222
     25 C         141.8278  141.5886  164.6708 C.ar    1  UNL1        0.0203
     26 C         140.7566  141.5380  168.4011 C.3     1  UNL1        0.0906
     27 C         141.4756  142.3755  169.4169 C.3     1  UNL1        0.0547
     28 C         141.2514  142.1361  170.8806 C.3     1  UNL1        0.1441
     29 O         140.3082  141.0592  171.3285 O.3     1  UNL1       -0.3536
     30 C         139.5892  140.2218  170.3128 C.3     1  UNL1        0.1441
     31 C         139.8134  140.4612  168.8491 C.3     1  UNL1        0.0547
@<TRIPOS>BOND
     1     7     8    1
     2     8     9    1
     3     8    10    1
     4    10    11    1
     5    11    12   am
     6    12    13    2
     7    12    14   am
     8    14     1    1
     9     1     2   ar
    10     2     3   ar
    11     3    17    1
    12    17    18   ar
    13    18    19   ar
    14    19    26    1
    15    26    27    1
    16    27    28    1
    17    28    29    1
    18    29    30    1
    19    30    31    1
    20    19    20   ar
    21    20    21   ar
    22    21    22   ar
    23    22    23   ar
    24    23    24   ar
    25    24    25   ar
    26     3     4   ar
    27     4     5   ar
    28     5     6   ar
    29    11    15    1
    30    15     8    1
    31     6     1   ar
    32    25    17   ar
    33    31    26    1
    34    25    20   ar
    35    14    16    1
