@<TRIPOS>MOLECULE
*****
 34 38 0 0 0
SMALL
GASTEIGER

@<TRIPOS>ATOM
      1 C         140.8539  139.0170  161.6649 C.ar    1  UNL1       -0.0224
      2 C         142.1480  138.2698  161.5353 C.ar    1  UNL1       -0.0030
      3 C         142.9287  138.3380  160.2563 C.ar    1  UNL1        0.0146
      4 C         142.4152  139.1536  159.1068 C.ar    1  UNL1        0.0542
      5 C         141.1210  139.9009  159.2364 C.ar    1  UNL1        0.0146
      6 C         140.3404  139.8326  160.5155 C.ar    1  UNL1       -0.0030
      7 N         143.1958  139.2219  157.8278 N.am    1  UNL1       -0.2511
      8 C         142.9707  138.0923  156.8668 C.3     1  UNL1        0.1458
      9 C         143.5925  137.8726  155.5196 C.3     1  UNL1        0.2289
     10 O         144.5930  138.7282  154.8006 O.3     1  UNL1       -0.4581
     11 C         145.2188  140.0149  155.2511 C.ar    1  UNL1        0.2335
     12 N         146.1740  140.5485  154.2251 N.ar    1  UNL1       -0.1891
     13 C         146.9091  141.8309  154.4801 C.ar    1  UNL1        0.2027
     14 N         146.6889  142.5797  155.7610 N.ar    1  UNL1       -0.2091
     15 C         145.7336  142.0461  156.7870 C.ar    1  UNL1        0.1361
     16 N         145.5134  142.7949  158.0680 N.pl3   1  UNL1       -0.3423
     17 C         144.9986  140.7637  156.5321 C.ar    1  UNL1        0.1380
     18 C         144.0983  140.4107  157.6788 C.2     1  UNL1        0.2601
     19 O         144.1008  141.3741  158.8285 O.2     1  UNL1       -0.2693
     20 H         145.9959  143.6366  158.2353 H       1  UNL1        0.1437
     21 H         144.8865  142.4447  158.7414 H       1  UNL1        0.1437
     22 C         138.5120  138.8121  165.5020 C.3     1  UNL1        0.0093
     23 C         139.3307  137.6358  165.0593 C.3     1  UNL1        0.0008
     24 C         140.1113  137.7041  163.7803 C.3     1  UNL1        0.0044
     25 C         140.0733  138.9487  162.9439 C.3     1  UNL1        0.0223
     26 C         139.2546  140.1251  163.3867 C.3     1  UNL1        0.0044
     27 C         138.4740  140.0568  164.6657 C.3     1  UNL1        0.0008
     28 C         137.7314  138.7439  166.7811 C.3     1  UNL1        0.0880
     29 C         140.8501  141.3862  170.1235 C.3     1  UNL1        0.0773
     30 C         139.7248  140.5626  169.5710 C.ar    1  UNL1        0.1809
     31 N         138.5808  139.9929  170.3565 N.ar    1  UNL1       -0.0606
     32 O         137.6949  139.2423  169.4070 O.2     1  UNL1       -0.3374
     33 C         138.2913  139.3480  168.0347 C.ar    1  UNL1        0.2363
     34 N         139.5458  140.1640  168.1361 N.ar    1  UNL1       -0.1949
@<TRIPOS>BOND
     1    29    30    1
     2    30    31   ar
     3    31    32   ar
     4    32    33   ar
     5    33    28    1
     6    22    28    1
     7    22    23    1
     8    23    24    1
     9    24    25    1
    10    25     1    1
    11     1     2   ar
    12     2     3   ar
    13     3     4   ar
    14     4     7    1
    15     7     8    1
    16     8     9    1
    17     9    10    1
    18    10    11    1
    19    11    12   ar
    20    12    13   ar
    21    13    14   ar
    22    14    15   ar
    23    15    16    1
    24    15    17   ar
    25    17    18    1
    26    18    19    2
    27     4     5   ar
    28     5     6   ar
    29    25    26    1
    30    26    27    1
    31    33    34   ar
    32    34    30   ar
    33    27    22    1
    34     6     1   ar
    35    18     7   am
    36    17    11   ar
    37    16    20    1
    38    16    21    1
@<TRIPOS>MOLECULE
*****
 34 38 0 0 0
SMALL
GASTEIGER

@<TRIPOS>ATOM
      1 C         142.4058  139.3089  163.5831 C.ar    1  UNL1       -0.0224
      2 C         143.6775  138.7059  163.0642 C.ar    1  UNL1       -0.0030
      3 C         143.9340  138.6518  161.5873 C.ar    1  UNL1        0.0146
      4 C         142.9187  139.2008  160.6292 C.ar    1  UNL1        0.0542
      5 C         141.6470  139.8038  161.1480 C.ar    1  UNL1        0.0146
      6 C         141.3905  139.8579  162.6250 C.ar    1  UNL1       -0.0030
      7 N         143.1751  139.1467  159.1523 N.am    1  UNL1       -0.2511
      8 C         142.6970  137.9085  158.4536 C.3     1  UNL1        0.1458
      9 C         142.8014  137.5557  156.9994 C.3     1  UNL1        0.2289
     10 O         143.4098  138.3542  155.8848 O.3     1  UNL1       -0.4581
     11 C         144.0640  139.7025  155.9489 C.ar    1  UNL1        0.2335
     12 N         144.5417  140.1447  154.5976 N.ar    1  UNL1       -0.1891
     13 C         145.2268  141.4699  154.4410 C.ar    1  UNL1        0.2027
     14 N         145.4341  142.3528  155.6357 N.ar    1  UNL1       -0.2091
     15 C         144.9565  141.9105  156.9871 C.ar    1  UNL1        0.1361
     16 N         145.1638  142.7935  158.1819 N.pl3   1  UNL1       -0.3423
     17 C         144.2714  140.5854  157.1437 C.ar    1  UNL1        0.1380
     18 C         143.8758  140.3380  158.5693 C.2     1  UNL1        0.2601
     19 O         144.2274  141.4259  159.5404 O.2     1  UNL1       -0.2693
     20 H         145.6135  143.6632  158.0791 H       1  UNL1        0.1437
     21 H         144.8503  142.5032  159.0688 H       1  UNL1        0.1437
     22 C         141.6365  139.4711  168.0138 C.3     1  UNL1        0.0093
     23 C         140.5314  139.7832  167.0488 C.3     1  UNL1        0.0008
     24 C         140.7879  139.7292  165.5719 C.3     1  UNL1        0.0044
     25 C         142.1494  139.3629  165.0599 C.3     1  UNL1        0.0223
     26 C         143.2546  139.0508  166.0250 C.3     1  UNL1        0.0044
     27 C         142.9981  139.1048  167.5019 C.3     1  UNL1        0.0008
     28 C         141.3802  139.5251  169.4908 C.3     1  UNL1        0.0880
     29 C         140.1485  144.6094  170.2070 C.3     1  UNL1        0.0773
     30 C         140.4095  143.1549  170.4643 C.ar    1  UNL1        0.1809
     31 N         140.2969  142.4597  171.7886 N.ar    1  UNL1       -0.0606
     32 O         140.6468  141.0154  171.5851 O.2     1  UNL1       -0.3374
     33 C         140.9757  140.8179  170.1350 C.ar    1  UNL1        0.2363
     34 N         140.8290  142.1402  169.4423 N.ar    1  UNL1       -0.1949
@<TRIPOS>BOND
     1    29    30    1
     2    30    31   ar
     3    31    32   ar
     4    32    33   ar
     5    33    28    1
     6    22    28    1
     7    22    23    1
     8    23    24    1
     9    24    25    1
    10    25     1    1
    11     1     2   ar
    12     2     3   ar
    13     3     4   ar
    14     4     7    1
    15     7     8    1
    16     8     9    1
    17     9    10    1
    18    10    11    1
    19    11    12   ar
    20    12    13   ar
    21    13    14   ar
    22    14    15   ar
    23    15    16    1
    24    15    17   ar
    25    17    18    1
    26    18    19    2
    27     4     5   ar
    28     5     6   ar
    29    25    26    1
    30    26    27    1
    31    33    34   ar
    32    34    30   ar
    33    27    22    1
    34     6     1   ar
    35    18     7   am
    36    17    11   ar
    37    16    20    1
    38    16    21    1
@<TRIPOS>MOLECULE
*****
 34 38 0 0 0
SMALL
GASTEIGER

@<TRIPOS>ATOM
      1 C         140.5847  138.6429  161.4441 C.ar    1  UNL1       -0.0224
      2 C         139.7790  139.8394  161.8553 C.ar    1  UNL1       -0.0030
      3 C         139.4177  140.0410  163.2971 C.ar    1  UNL1        0.0146
      4 C         139.8620  139.0458  164.3278 C.ar    1  UNL1        0.0542
      5 C         140.6677  137.8492  163.9166 C.ar    1  UNL1        0.0146
      6 C         141.0291  137.6477  162.4748 C.ar    1  UNL1       -0.0030
      7 N         139.5007  139.2472  165.7696 N.am    1  UNL1       -0.2511
      8 C         138.2237  138.5998  166.2171 C.3     1  UNL1        0.1458
      9 C         137.5947  138.6147  167.5788 C.3     1  UNL1        0.2289
     10 O         138.0874  139.2808  168.8293 O.3     1  UNL1       -0.4581
     11 C         139.3307  140.0964  169.0269 C.ar    1  UNL1        0.2335
     12 N         139.4485  140.5819  170.4413 N.ar    1  UNL1       -0.1891
     13 C         140.6240  141.4184  170.8516 C.ar    1  UNL1        0.2027
     14 N         141.6817  141.7694  169.8475 N.ar    1  UNL1       -0.2091
     15 C         141.5639  141.2839  168.4332 C.ar    1  UNL1        0.1361
     16 N         142.6216  141.6350  167.4292 N.pl3   1  UNL1       -0.3423
     17 C         140.3884  140.4474  168.0229 C.ar    1  UNL1        0.1380
     18 C         140.4640  140.0695  166.5733 C.2     1  UNL1        0.2601
     19 O         141.6613  140.5816  165.8288 O.2     1  UNL1       -0.2693
     20 H         143.3931  142.1840  167.6985 H       1  UNL1        0.1437
     21 H         142.5442  141.3163  166.5009 H       1  UNL1        0.1437
     22 C         141.6688  138.0385  157.1187 C.3     1  UNL1        0.0093
     23 C         140.2540  138.3600  157.4995 C.3     1  UNL1        0.0008
     24 C         139.8927  138.5615  158.9412 C.3     1  UNL1        0.0044
     25 C         140.9461  138.4414  160.0024 C.3     1  UNL1        0.0223
     26 C         142.3609  138.1199  159.6216 C.3     1  UNL1        0.0044
     27 C         142.7223  137.9184  158.1798 C.3     1  UNL1        0.0008
     28 C         142.0302  137.8370  155.6769 C.3     1  UNL1        0.0880
     29 C         141.3366  132.6361  155.0859 C.3     1  UNL1        0.0773
     30 C         141.6689  134.0719  154.8063 C.ar    1  UNL1        0.1809
     31 N         142.1756  134.6226  153.5064 N.ar    1  UNL1       -0.0606
     32 O         142.3727  136.1000  153.6743 O.2     1  UNL1       -0.3374
     33 C         141.9877  136.4625  155.0780 C.ar    1  UNL1        0.2363
     34 N         141.5527  135.2090  155.7776 N.ar    1  UNL1       -0.1949
@<TRIPOS>BOND
     1    29    30    1
     2    30    31   ar
     3    31    32   ar
     4    32    33   ar
     5    33    28    1
     6    22    28    1
     7    22    23    1
     8    23    24    1
     9    24    25    1
    10    25     1    1
    11     1     2   ar
    12     2     3   ar
    13     3     4   ar
    14     4     7    1
    15     7     8    1
    16     8     9    1
    17     9    10    1
    18    10    11    1
    19    11    12   ar
    20    12    13   ar
    21    13    14   ar
    22    14    15   ar
    23    15    16    1
    24    15    17   ar
    25    17    18    1
    26    18    19    2
    27     4     5   ar
    28     5     6   ar
    29    25    26    1
    30    26    27    1
    31    33    34   ar
    32    34    30   ar
    33    27    22    1
    34     6     1   ar
    35    18     7   am
    36    17    11   ar
    37    16    20    1
    38    16    21    1
@<TRIPOS>MOLECULE
*****
 34 38 0 0 0
SMALL
GASTEIGER

@<TRIPOS>ATOM
      1 C         139.6190  139.3874  163.0145 C.ar    1  UNL1       -0.0224
      2 C         139.0676  138.1874  162.3032 C.ar    1  UNL1       -0.0030
      3 C         139.2365  138.0520  160.8189 C.ar    1  UNL1        0.0146
      4 C         139.9569  139.1167  160.0459 C.ar    1  UNL1        0.0542
      5 C         140.5083  140.3167  160.7572 C.ar    1  UNL1        0.0146
      6 C         140.3394  140.4521  162.2415 C.ar    1  UNL1       -0.0030
      7 N         140.1258  138.9814  158.5617 N.am    1  UNL1       -0.2511
      8 C         141.3882  138.3095  158.1089 C.3     1  UNL1        0.1458
      9 C         141.8467  138.0261  156.7090 C.3     1  UNL1        0.2289
     10 O         141.1558  138.3446  155.4162 O.3     1  UNL1       -0.4581
     11 C         139.8361  139.0252  155.2039 C.ar    1  UNL1        0.2335
     12 N         139.5112  139.1478  153.7447 N.ar    1  UNL1       -0.1891
     13 C         138.2314  139.8006  153.3135 C.ar    1  UNL1        0.2027
     14 N         137.2764  140.3307  154.3417 N.ar    1  UNL1       -0.2091
     15 C         137.6013  140.2081  155.8009 C.ar    1  UNL1        0.1361
     16 N         136.6464  140.7382  156.8290 N.pl3   1  UNL1       -0.3423
     17 C         138.8811  139.5553  156.2320 C.ar    1  UNL1        0.1380
     18 C         139.0101  139.5358  157.7263 C.2     1  UNL1        0.2601
     19 O         137.8729  140.1523  158.4858 O.2     1  UNL1       -0.2693
     20 H         135.8063  141.1667  156.5460 H       1  UNL1        0.1437
     21 H         136.8596  140.6577  157.7867 H       1  UNL1        0.1437
     22 C         139.1121  139.7934  167.4674 C.3     1  UNL1        0.0093
     23 C         138.3141  138.7726  166.7117 C.3     1  UNL1        0.0008
     24 C         138.4831  138.6372  165.2275 C.3     1  UNL1        0.0044
     25 C         139.4500  139.5227  164.4988 C.3     1  UNL1        0.0223
     26 C         140.2481  140.5436  165.2545 C.3     1  UNL1        0.0044
     27 C         140.0791  140.6790  166.7387 C.3     1  UNL1        0.0008
     28 C         138.9432  139.9288  168.9517 C.3     1  UNL1        0.0880
     29 C         142.7655  143.1364  170.6785 C.3     1  UNL1        0.0773
     30 C         141.4282  142.4844  170.4877 C.ar    1  UNL1        0.1809
     31 N         140.1550  142.8633  171.1845 N.ar    1  UNL1       -0.0606
     32 O         139.0693  141.9521  170.6939 O.2     1  UNL1       -0.3374
     33 C         139.6713  141.0100  169.6939 C.ar    1  UNL1        0.2363
     34 N         141.1291  141.3390  169.5664 N.ar    1  UNL1       -0.1949
@<TRIPOS>BOND
     1    29    30    1
     2    30    31   ar
     3    31    32   ar
     4    32    33   ar
     5    33    28    1
     6    22    28    1
     7    22    23    1
     8    23    24    1
     9    24    25    1
    10    25     1    1
    11     1     2   ar
    12     2     3   ar
    13     3     4   ar
    14     4     7    1
    15     7     8    1
    16     8     9    1
    17     9    10    1
    18    10    11    1
    19    11    12   ar
    20    12    13   ar
    21    13    14   ar
    22    14    15   ar
    23    15    16    1
    24    15    17   ar
    25    17    18    1
    26    18    19    2
    27     4     5   ar
    28     5     6   ar
    29    25    26    1
    30    26    27    1
    31    33    34   ar
    32    34    30   ar
    33    27    22    1
    34     6     1   ar
    35    18     7   am
    36    17    11   ar
    37    16    20    1
    38    16    21    1
@<TRIPOS>MOLECULE
*****
 34 38 0 0 0
SMALL
GASTEIGER

@<TRIPOS>ATOM
      1 C         142.4199  138.7016  162.9655 C.ar    1  UNL1       -0.0224
      2 C         141.1106  138.5004  162.2618 C.ar    1  UNL1       -0.0030
      3 C         141.0852  138.2397  160.7848 C.ar    1  UNL1        0.0146
      4 C         142.3693  138.1801  160.0116 C.ar    1  UNL1        0.0542
      5 C         143.6786  138.3813  160.7153 C.ar    1  UNL1        0.0146
      6 C         143.7040  138.6420  162.1922 C.ar    1  UNL1       -0.0030
      7 N         142.3439  137.9194  158.5347 N.am    1  UNL1       -0.2511
      8 C         141.9812  139.0923  157.6728 C.3     1  UNL1        0.1458
      9 C         141.8697  139.1557  156.1783 C.3     1  UNL1        0.2289
     10 O         142.0932  138.0618  155.1765 O.3     1  UNL1       -0.4581
     11 C         142.4835  136.6344  155.4218 C.ar    1  UNL1        0.2335
     12 N         142.6025  135.8702  154.1366 N.ar    1  UNL1       -0.1891
     13 C         142.9847  134.4199  154.1590 C.ar    1  UNL1        0.2027
     14 N         143.2479  133.7338  155.4667 N.ar    1  UNL1       -0.2091
     15 C         143.1289  134.4980  156.7519 C.ar    1  UNL1        0.1361
     16 N         143.3921  133.8119  158.0596 N.pl3   1  UNL1       -0.3423
     17 C         142.7467  135.9483  156.7295 C.ar    1  UNL1        0.1380
     18 C         142.6846  136.5202  158.1148 C.2     1  UNL1        0.2601
     19 O         143.0055  135.5668  159.2274 O.2     1  UNL1       -0.2693
     20 H         143.6429  132.8600  158.0743 H       1  UNL1        0.1437
     21 H         143.3140  134.3135  158.9031 H       1  UNL1        0.1437
     22 C         142.4960  139.4838  167.3963 C.3     1  UNL1        0.0093
     23 C         143.6181  138.7277  166.7488 C.3     1  UNL1        0.0008
     24 C         143.5927  138.4670  165.2719 C.3     1  UNL1        0.0044
     25 C         142.4453  138.9623  164.4424 C.3     1  UNL1        0.0223
     26 C         141.3232  139.7185  165.0899 C.3     1  UNL1        0.0044
     27 C         141.3485  139.9792  166.5668 C.3     1  UNL1        0.0008
     28 C         142.5213  139.7446  168.8732 C.3     1  UNL1        0.0880
     29 C         140.3791  144.3951  170.1632 C.3     1  UNL1        0.0773
     30 C         141.3657  143.2795  169.9842 C.ar    1  UNL1        0.1809
     31 N         142.8088  143.3048  170.3924 N.ar    1  UNL1       -0.0606
     32 O         143.4173  141.9837  170.0260 O.2     1  UNL1       -0.3374
     33 C         142.3503  141.1419  169.3912 C.ar    1  UNL1        0.2363
     34 N         141.0823  141.9428  169.3654 N.ar    1  UNL1       -0.1949
@<TRIPOS>BOND
     1    29    30    1
     2    30    31   ar
     3    31    32   ar
     4    32    33   ar
     5    33    28    1
     6    22    28    1
     7    22    23    1
     8    23    24    1
     9    24    25    1
    10    25     1    1
    11     1     2   ar
    12     2     3   ar
    13     3     4   ar
    14     4     7    1
    15     7     8    1
    16     8     9    1
    17     9    10    1
    18    10    11    1
    19    11    12   ar
    20    12    13   ar
    21    13    14   ar
    22    14    15   ar
    23    15    16    1
    24    15    17   ar
    25    17    18    1
    26    18    19    2
    27     4     5   ar
    28     5     6   ar
    29    25    26    1
    30    26    27    1
    31    33    34   ar
    32    34    30   ar
    33    27    22    1
    34     6     1   ar
    35    18     7   am
    36    17    11   ar
    37    16    20    1
    38    16    21    1
@<TRIPOS>MOLECULE
*****
 34 38 0 0 0
SMALL
GASTEIGER

@<TRIPOS>ATOM
      1 C         142.1271  139.2570  157.5497 C.ar    1  UNL1       -0.0224
      2 C         141.0149  138.2528  157.6166 C.ar    1  UNL1       -0.0030
      3 C         141.1152  136.9701  156.8454 C.ar    1  UNL1        0.0146
      4 C         142.3278  136.6916  156.0074 C.ar    1  UNL1        0.0542
      5 C         143.4400  137.6959  155.9406 C.ar    1  UNL1        0.0146
      6 C         143.3397  138.9786  156.7118 C.ar    1  UNL1       -0.0030
      7 N         142.4281  135.4090  155.2363 N.am    1  UNL1       -0.2511
      8 C         141.6567  135.3604  153.9508 C.3     1  UNL1        0.1458
      9 C         141.5532  134.2353  152.9641 C.3     1  UNL1        0.2289
     10 O         142.1957  132.8810  153.0193 O.3     1  UNL1       -0.4581
     11 C         143.1003  132.3172  154.0747 C.ar    1  UNL1        0.2335
     12 N         143.5241  130.9172  153.7425 N.ar    1  UNL1       -0.1891
     13 C         144.4335  130.1686  154.6712 C.ar    1  UNL1        0.2027
     14 N         144.9190  130.8199  155.9322 N.ar    1  UNL1       -0.2091
     15 C         144.4951  132.2199  156.2644 C.ar    1  UNL1        0.1361
     16 N         144.9807  132.8712  157.5254 N.pl3   1  UNL1       -0.3423
     17 C         143.5858  132.9685  155.3357 C.ar    1  UNL1        0.1380
     18 C         143.2866  134.3445  155.8526 C.2     1  UNL1        0.2601
     19 O         143.9313  134.7035  157.1586 O.2     1  UNL1       -0.2693
     20 H         145.5775  132.3799  158.1349 H       1  UNL1        0.1437
     21 H         144.7025  133.7901  157.7434 H       1  UNL1        0.1437
     22 C         141.8260  143.1050  159.8631 C.3     1  UNL1        0.0093
     23 C         140.5940  142.2924  159.5957 C.3     1  UNL1        0.0008
     24 C         140.6943  141.0097  158.8246 C.3     1  UNL1        0.0044
     25 C         142.0267  140.5397  158.3209 C.3     1  UNL1        0.0223
     26 C         143.2589  141.3524  158.5883 C.3     1  UNL1        0.0044
     27 C         143.1585  142.6350  159.3595 C.3     1  UNL1        0.0008
     28 C         141.7257  144.3877  160.6343 C.3     1  UNL1        0.0880
     29 C         138.8601  144.7757  165.0522 C.3     1  UNL1        0.0773
     30 C         139.2625  144.7871  163.6072 C.ar    1  UNL1        0.1809
     31 N         138.3701  145.1108  162.4459 N.ar    1  UNL1       -0.0606
     32 O         139.1842  145.0006  161.1909 O.2     1  UNL1       -0.3374
     33 C         140.5798  144.6088  161.5766 C.ar    1  UNL1        0.2363
     34 N         140.6282  144.4769  163.0699 N.ar    1  UNL1       -0.1949
@<TRIPOS>BOND
     1    29    30    1
     2    30    31   ar
     3    31    32   ar
     4    32    33   ar
     5    33    28    1
     6    22    28    1
     7    22    23    1
     8    23    24    1
     9    24    25    1
    10    25     1    1
    11     1     2   ar
    12     2     3   ar
    13     3     4   ar
    14     4     7    1
    15     7     8    1
    16     8     9    1
    17     9    10    1
    18    10    11    1
    19    11    12   ar
    20    12    13   ar
    21    13    14   ar
    22    14    15   ar
    23    15    16    1
    24    15    17   ar
    25    17    18    1
    26    18    19    2
    27     4     5   ar
    28     5     6   ar
    29    25    26    1
    30    26    27    1
    31    33    34   ar
    32    34    30   ar
    33    27    22    1
    34     6     1   ar
    35    18     7   am
    36    17    11   ar
    37    16    20    1
    38    16    21    1
@<TRIPOS>MOLECULE
*****
 34 38 0 0 0
SMALL
GASTEIGER

@<TRIPOS>ATOM
      1 C         140.6661  139.3991  162.5540 C.ar    1  UNL1       -0.0224
      2 C         140.2492  140.4517  161.5700 C.ar    1  UNL1       -0.0030
      3 C         140.6981  140.3631  160.1415 C.ar    1  UNL1        0.0146
      4 C         141.5641  139.2217  159.6970 C.ar    1  UNL1        0.0542
      5 C         141.9811  138.1691  160.6810 C.ar    1  UNL1        0.0146
      6 C         141.5321  138.2578  162.1095 C.ar    1  UNL1       -0.0030
      7 N         142.0131  139.1330  158.2686 N.am    1  UNL1       -0.2511
      8 C         143.3080  139.8197  157.9495 C.3     1  UNL1        0.1458
      9 C         144.0175  139.9124  156.6311 C.3     1  UNL1        0.2289
     10 O         143.6072  139.3412  155.3062 O.3     1  UNL1       -0.4581
     11 C         142.3863  138.5363  154.9723 C.ar    1  UNL1        0.2335
     12 N         142.3582  138.1597  153.5207 N.ar    1  UNL1       -0.1891
     13 C         141.2178  137.3507  152.9777 C.ar    1  UNL1        0.2027
     14 N         140.1055  136.9182  153.8864 N.ar    1  UNL1       -0.2091
     15 C         140.1336  137.2948  155.3381 C.ar    1  UNL1        0.1361
     16 N         139.0213  136.8623  156.2468 N.pl3   1  UNL1       -0.3423
     17 C         141.2740  138.1038  155.8810 C.ar    1  UNL1        0.1380
     18 C         141.1080  138.3694  157.3480 C.2     1  UNL1        0.2601
     19 O         139.8734  137.7954  157.9776 O.2     1  UNL1       -0.2693
     20 H         138.2728  136.3312  155.8904 H       1  UNL1        0.1437
     21 H         139.0397  137.1094  157.1996 H       1  UNL1        0.1437
     22 C         139.3191  139.6652  166.8393 C.3     1  UNL1        0.0093
     23 C         138.3327  139.8742  165.7288 C.3     1  UNL1        0.0008
     24 C         138.7817  139.7855  164.3004 C.3     1  UNL1        0.0044
     25 C         140.2171  139.4878  163.9824 C.3     1  UNL1        0.0223
     26 C         141.2035  139.2788  165.0930 C.3     1  UNL1        0.0044
     27 C         140.7545  139.3674  166.5215 C.3     1  UNL1        0.0008
     28 C         138.8701  139.7538  168.2678 C.3     1  UNL1        0.0880
     29 C         142.3265  143.1302  170.3971 C.3     1  UNL1        0.0773
     30 C         141.2802  142.0662  170.2451 C.ar    1  UNL1        0.1809
     31 N         140.6307  141.3025  171.3609 N.ar    1  UNL1       -0.0606
     32 O         139.6489  140.3434  170.7560 O.2     1  UNL1       -0.3374
     33 C         139.6915  140.5142  169.2664 C.ar    1  UNL1        0.2363
     34 N         140.6997  141.5790  168.9507 N.ar    1  UNL1       -0.1949
@<TRIPOS>BOND
     1    29    30    1
     2    30    31   ar
     3    31    32   ar
     4    32    33   ar
     5    33    28    1
     6    22    28    1
     7    22    23    1
     8    23    24    1
     9    24    25    1
    10    25     1    1
    11     1     2   ar
    12     2     3   ar
    13     3     4   ar
    14     4     7    1
    15     7     8    1
    16     8     9    1
    17     9    10    1
    18    10    11    1
    19    11    12   ar
    20    12    13   ar
    21    13    14   ar
    22    14    15   ar
    23    15    16    1
    24    15    17   ar
    25    17    18    1
    26    18    19    2
    27     4     5   ar
    28     5     6   ar
    29    25    26    1
    30    26    27    1
    31    33    34   ar
    32    34    30   ar
    33    27    22    1
    34     6     1   ar
    35    18     7   am
    36    17    11   ar
    37    16    20    1
    38    16    21    1
@<TRIPOS>MOLECULE
*****
 34 38 0 0 0
SMALL
GASTEIGER

@<TRIPOS>ATOM
      1 C         141.2092  139.1842  160.8474 C.ar    1  UNL1       -0.0224
      2 C         142.3208  140.0805  161.3066 C.ar    1  UNL1       -0.0030
      3 C         142.2581  140.7186  162.6627 C.ar    1  UNL1        0.0146
      4 C         141.0837  140.4603  163.5595 C.ar    1  UNL1        0.0542
      5 C         139.9721  139.5640  163.1003 C.ar    1  UNL1        0.0146
      6 C         140.0348  138.9259  161.7442 C.ar    1  UNL1       -0.0030
      7 N         141.0210  141.0984  164.9155 N.am    1  UNL1       -0.2511
      8 C         140.2302  142.3702  165.0005 C.3     1  UNL1        0.1458
      9 C         139.9805  143.2381  166.1982 C.3     1  UNL1        0.2289
     10 O         140.4598  143.0484  167.6068 O.3     1  UNL1       -0.4581
     11 C         141.3072  141.9440  168.1657 C.ar    1  UNL1        0.2335
     12 N         141.5584  142.1345  169.6322 N.ar    1  UNL1       -0.1891
     13 C         142.3870  141.1376  170.3868 C.ar    1  UNL1        0.2027
     14 N         142.9644  139.9502  169.6750 N.ar    1  UNL1       -0.2091
     15 C         142.7132  139.7597  168.2086 C.ar    1  UNL1        0.1361
     16 N         143.2906  138.5723  167.4968 N.pl3   1  UNL1       -0.3423
     17 C         141.8846  140.7566  167.4539 C.ar    1  UNL1        0.1380
     18 C         141.7572  140.3803  166.0075 C.2     1  UNL1        0.2601
     19 O         142.4589  139.1190  165.5989 O.2     1  UNL1       -0.2693
     20 H         143.8345  137.9180  167.9921 H       1  UNL1        0.1437
     21 H         143.1258  138.4473  166.5343 H       1  UNL1        0.1437
     22 C         141.3974  137.2699  156.7792 C.3     1  UNL1        0.0093
     23 C         142.6534  137.4626  157.5763 C.3     1  UNL1        0.0008
     24 C         142.5907  138.1006  158.9323 C.3     1  UNL1        0.0044
     25 C         141.2719  138.5461  159.4913 C.3     1  UNL1        0.0223
     26 C         140.0158  138.3534  158.6942 C.3     1  UNL1        0.0044
     27 C         140.0786  137.7154  157.3382 C.3     1  UNL1        0.0008
     28 C         141.4601  136.6319  155.4231 C.3     1  UNL1        0.0880
     29 C         142.6918  131.5976  156.4324 C.3     1  UNL1        0.0773
     30 C         142.1549  132.8285  155.7641 C.ar    1  UNL1        0.1809
     31 N         141.4187  132.8726  154.4579 N.ar    1  UNL1       -0.0606
     32 O         141.0688  134.3027  154.1713 O.2     1  UNL1       -0.3374
     33 C         141.5888  135.1425  155.3002 C.ar    1  UNL1        0.2363
     34 N         142.2600  134.2313  156.2846 N.ar    1  UNL1       -0.1949
@<TRIPOS>BOND
     1    29    30    1
     2    30    31   ar
     3    31    32   ar
     4    32    33   ar
     5    33    28    1
     6    22    28    1
     7    22    23    1
     8    23    24    1
     9    24    25    1
    10    25     1    1
    11     1     2   ar
    12     2     3   ar
    13     3     4   ar
    14     4     7    1
    15     7     8    1
    16     8     9    1
    17     9    10    1
    18    10    11    1
    19    11    12   ar
    20    12    13   ar
    21    13    14   ar
    22    14    15   ar
    23    15    16    1
    24    15    17   ar
    25    17    18    1
    26    18    19    2
    27     4     5   ar
    28     5     6   ar
    29    25    26    1
    30    26    27    1
    31    33    34   ar
    32    34    30   ar
    33    27    22    1
    34     6     1   ar
    35    18     7   am
    36    17    11   ar
    37    16    20    1
    38    16    21    1
@<TRIPOS>MOLECULE
*****
 34 38 0 0 0
SMALL
GASTEIGER

@<TRIPOS>ATOM
      1 C         141.7567  137.2400  157.0506 C.ar    1  UNL1       -0.0224
      2 C         142.5357  137.6436  158.2673 C.ar    1  UNL1       -0.0030
      3 C         142.2036  138.9203  158.9812 C.ar    1  UNL1        0.0146
      4 C         141.0923  139.7935  158.4783 C.ar    1  UNL1        0.0542
      5 C         140.3134  139.3900  157.2616 C.ar    1  UNL1        0.0146
      6 C         140.6455  138.1132  156.5477 C.ar    1  UNL1       -0.0030
      7 N         140.7602  141.0702  159.1921 N.am    1  UNL1       -0.2511
      8 C         141.5826  142.2642  158.8070 C.3     1  UNL1        0.1458
      9 C         141.4975  143.6670  159.3314 C.3     1  UNL1        0.2289
     10 O         140.5689  144.2223  160.3703 O.3     1  UNL1       -0.4581
     11 C         139.4961  143.5120  161.1415 C.ar    1  UNL1        0.2335
     12 N         138.7950  144.4410  162.0878 N.ar    1  UNL1       -0.1891
     13 C         137.6848  143.9290  162.9567 C.ar    1  UNL1        0.2027
     14 N         137.2757  142.4879  162.8794 N.ar    1  UNL1       -0.2091
     15 C         137.9768  141.5589  161.9332 C.ar    1  UNL1        0.1361
     16 N         137.5676  140.1179  161.8559 N.pl3   1  UNL1       -0.3423
     17 C         139.0870  142.0710  161.0643 C.ar    1  UNL1        0.1380
     18 C         139.6496  140.9843  160.1967 C.2     1  UNL1        0.2601
     19 O         139.0180  139.6330  160.3545 O.2     1  UNL1       -0.2693
     20 H         136.8389  139.7818  162.4263 H       1  UNL1        0.1437
     21 H         138.0278  139.5081  161.2349 H       1  UNL1        0.1437
     22 C         142.7532  133.4098  154.9091 C.3     1  UNL1        0.0093
     23 C         143.6849  133.9494  155.9534 C.3     1  UNL1        0.0008
     24 C         143.3528  135.2261  156.6672 C.3     1  UNL1        0.0044
     25 C         142.0889  135.9633  156.3368 C.3     1  UNL1        0.0223
     26 C         141.1571  135.4236  155.2923 C.3     1  UNL1        0.0044
     27 C         141.4893  134.1469  154.5785 C.3     1  UNL1        0.0008
     28 C         143.0853  132.1330  154.1952 C.3     1  UNL1        0.0880
     29 C         143.1770  128.1493  157.6595 C.3     1  UNL1        0.0773
     30 C         143.5702  129.0997  156.5676 C.ar    1  UNL1        0.1809
     31 N         144.8486  129.0618  155.7838 N.ar    1  UNL1       -0.0606
     32 O         144.8225  130.1935  154.7997 O.2     1  UNL1       -0.3374
     33 C         143.5281  130.9308  154.9753 C.ar    1  UNL1        0.2363
     34 N         142.7541  130.2548  156.0679 N.ar    1  UNL1       -0.1949
@<TRIPOS>BOND
     1    29    30    1
     2    30    31   ar
     3    31    32   ar
     4    32    33   ar
     5    33    28    1
     6    22    28    1
     7    22    23    1
     8    23    24    1
     9    24    25    1
    10    25     1    1
    11     1     2   ar
    12     2     3   ar
    13     3     4   ar
    14     4     7    1
    15     7     8    1
    16     8     9    1
    17     9    10    1
    18    10    11    1
    19    11    12   ar
    20    12    13   ar
    21    13    14   ar
    22    14    15   ar
    23    15    16    1
    24    15    17   ar
    25    17    18    1
    26    18    19    2
    27     4     5   ar
    28     5     6   ar
    29    25    26    1
    30    26    27    1
    31    33    34   ar
    32    34    30   ar
    33    27    22    1
    34     6     1   ar
    35    18     7   am
    36    17    11   ar
    37    16    20    1
    38    16    21    1
