@<TRIPOS>MOLECULE
*****
 33 36 0 0 0
SMALL
GASTEIGER

@<TRIPOS>ATOM
      1 N         143.6475  139.2027  163.2237 N.3     1  UNL1       -0.2700
      2 C         142.6212  138.1228  163.0490 C.3     1  UNL1        0.0897
      3 C         142.0216  137.8695  161.6976 C.3     1  UNL1        0.0897
      4 N         142.4483  138.6961  160.5208 N.3     1  UNL1       -0.2700
      5 C         143.4746  139.7760  160.6955 C.3     1  UNL1        0.0897
      6 C         144.0742  140.0293  162.0470 C.3     1  UNL1        0.0897
      7 C         144.2471  139.4560  164.5751 C.3     1  UNL1        0.0762
      8 C         143.4079  140.0465  165.6692 C.3     1  UNL1        0.0337
      9 C         143.3979  138.7232  166.3756 C.3     1  UNL1        0.0058
     10 C         143.4180  141.3697  164.9628 C.3     1  UNL1        0.0058
     11 C         140.4353  140.5758  168.2446 C.ar    1  UNL1        0.1479
     12 C         141.2744  139.9853  167.1505 C.ar    1  UNL1        0.0334
     13 C         142.5688  140.6370  166.7633 C.ar    1  UNL1       -0.0184
     14 C         143.0240  141.8791  167.4703 C.ar    1  UNL1       -0.0034
     15 C         142.1849  142.4696  168.5645 C.ar    1  UNL1        0.0130
     16 C         140.8905  141.8180  168.9516 C.ar    1  UNL1        0.1023
     17 C         138.3192  139.2147  167.5965 C.3     1  UNL1        0.2525
     18 O         139.1409  139.9241  168.6318 O.3     1  UNL1       -0.4708
     19 C         140.0513  142.4084  170.0458 C.1     1  UNL1        0.1035
     20 N         139.2121  142.9989  171.1399 N.1     1  UNL1       -0.1907
     21 C         141.8487  138.4427  159.1695 C.3     1  UNL1        0.0769
     22 C         140.4672  138.9368  158.8573 C.3     1  UNL1        0.0433
     23 C         139.8670  140.0476  159.6674 C.ar    1  UNL1       -0.0249
     24 C         140.2018  141.4743  159.3479 C.ar    1  UNL1       -0.0043
     25 C         139.6017  142.5850  160.1578 C.ar    1  UNL1        0.0059
     26 C         138.6668  142.2690  161.2874 C.ar    1  UNL1        0.0748
     27 C         138.3319  140.8422  161.6070 C.ar    1  UNL1        0.0233
     28 C         138.9320  139.7314  160.7970 C.ar    1  UNL1       -0.0260
     29 C         138.5972  138.3046  161.1166 C.3     1  UNL1        0.0305
     30 C         137.3856  140.8376  162.7708 C.3     1  UNL1        0.2352
     31 O         137.1355  142.2615  163.1705 O.3     1  UNL1       -0.4404
     32 C         137.9273  143.1462  162.2537 C.2     1  UNL1        0.3413
     33 O         137.9719  144.6449  162.2958 O.2     1  UNL1       -0.2449
@<TRIPOS>BOND
     1    17    18    1
     2    18    11    1
     3    11    12   ar
     4    12    13   ar
     5    13     8    1
     6     8     9    1
     7     8    10    1
     8     8     7    1
     9     7     1    1
    10     1     2    1
    11     2     3    1
    12     3     4    1
    13     4    21    1
    14    21    22    1
    15    22    23    1
    16    23    24   ar
    17    24    25   ar
    18    25    26   ar
    19    26    27   ar
    20    27    28   ar
    21    28    29    1
    22    27    30    1
    23    30    31    1
    24    31    32    1
    25    32    33    2
    26     4     5    1
    27     5     6    1
    28    13    14   ar
    29    14    15   ar
    30    15    16   ar
    31    16    19    1
    32    19    20    3
    33    16    11   ar
    34     6     1    1
    35    28    23   ar
    36    32    26    1
@<TRIPOS>MOLECULE
*****
 33 36 0 0 0
SMALL
GASTEIGER

@<TRIPOS>ATOM
      1 N         142.7015  138.7099  163.1396 N.3     1  UNL1       -0.2700
      2 C         143.9648  139.5174  163.1870 C.3     1  UNL1        0.0897
      3 C         144.4023  140.2968  161.9824 C.3     1  UNL1        0.0897
      4 N         143.5768  140.2687  160.7303 N.3     1  UNL1       -0.2700
      5 C         142.3135  139.4612  160.6828 C.3     1  UNL1        0.0897
      6 C         141.8760  138.6818  161.8875 C.3     1  UNL1        0.0897
      7 C         142.2639  137.9305  164.3441 C.3     1  UNL1        0.0762
      8 C         141.9473  138.6443  165.6249 C.3     1  UNL1        0.0337
      9 C         143.3145  138.3144  166.1465 C.3     1  UNL1        0.0058
     10 C         140.5802  138.9741  165.1032 C.3     1  UNL1        0.0058
     11 C         142.4249  140.5203  169.0892 C.ar    1  UNL1        0.1479
     12 C         142.7415  139.8066  167.8085 C.ar    1  UNL1        0.0334
     13 C         141.6308  139.3580  166.9056 C.ar    1  UNL1       -0.0184
     14 C         140.2037  139.6231  167.2835 C.ar    1  UNL1       -0.0034
     15 C         139.8871  140.3369  168.5643 C.ar    1  UNL1        0.0130
     16 C         140.9978  140.7855  169.4672 C.ar    1  UNL1        0.1023
     17 C         144.0835  142.3603  169.8728 C.3     1  UNL1        0.2525
     18 O         143.5356  140.9690  169.9921 O.3     1  UNL1       -0.4708
     19 C         140.6813  141.4992  170.7480 C.1     1  UNL1        0.1035
     20 N         140.3648  142.2130  172.0288 N.1     1  UNL1       -0.1907
     21 C         144.0144  141.0481  159.5258 C.3     1  UNL1        0.0769
     22 C         143.6759  142.5049  159.4115 C.3     1  UNL1        0.0433
     23 C         142.5085  143.0654  160.1686 C.ar    1  UNL1       -0.0249
     24 C         141.1278  142.9796  159.5891 C.ar    1  UNL1       -0.0043
     25 C         139.9604  143.5400  160.3462 C.ar    1  UNL1        0.0059
     26 C         140.1739  144.1861  161.6829 C.ar    1  UNL1        0.0748
     27 C         141.5547  144.2719  162.2626 C.ar    1  UNL1        0.0233
     28 C         142.7221  143.7115  161.5055 C.ar    1  UNL1       -0.0260
     29 C         144.1030  143.7972  162.0850 C.3     1  UNL1        0.0305
     30 C         141.4577  144.9609  163.5914 C.3     1  UNL1        0.2352
     31 O         140.0169  145.3010  163.8331 O.3     1  UNL1       -0.4404
     32 C         139.2234  144.8221  162.6536 C.2     1  UNL1        0.3413
     33 O         137.7400  144.9559  162.4759 O.2     1  UNL1       -0.2449
@<TRIPOS>BOND
     1    17    18    1
     2    18    11    1
     3    11    12   ar
     4    12    13   ar
     5    13     8    1
     6     8     9    1
     7     8    10    1
     8     8     7    1
     9     7     1    1
    10     1     2    1
    11     2     3    1
    12     3     4    1
    13     4    21    1
    14    21    22    1
    15    22    23    1
    16    23    24   ar
    17    24    25   ar
    18    25    26   ar
    19    26    27   ar
    20    27    28   ar
    21    28    29    1
    22    27    30    1
    23    30    31    1
    24    31    32    1
    25    32    33    2
    26     4     5    1
    27     5     6    1
    28    13    14   ar
    29    14    15   ar
    30    15    16   ar
    31    16    19    1
    32    19    20    3
    33    16    11   ar
    34     6     1    1
    35    28    23   ar
    36    32    26    1
@<TRIPOS>MOLECULE
*****
 33 36 0 0 0
SMALL
GASTEIGER

@<TRIPOS>ATOM
      1 N         144.0272  139.6277  163.1539 N.3     1  UNL1       -0.2700
      2 C         143.2864  138.4440  162.6060 C.3     1  UNL1        0.0897
      3 C         142.9669  138.3710  161.1423 C.3     1  UNL1        0.0897
      4 N         143.3882  139.4816  160.2263 N.3     1  UNL1       -0.2700
      5 C         144.1290  140.6653  160.7741 C.3     1  UNL1        0.0897
      6 C         144.4485  140.7383  162.2380 C.3     1  UNL1        0.0897
      7 C         144.3467  139.7007  164.6176 C.3     1  UNL1        0.0762
      8 C         143.2373  139.7532  165.6258 C.3     1  UNL1        0.0337
      9 C         142.9107  141.1520  165.1935 C.3     1  UNL1        0.0058
     10 C         143.5638  138.3545  166.0580 C.3     1  UNL1        0.0058
     11 C         141.3359  140.0218  169.0988 C.ar    1  UNL1        0.1479
     12 C         142.4454  139.9693  168.0908 C.ar    1  UNL1        0.0334
     13 C         142.1279  139.8057  166.6339 C.ar    1  UNL1       -0.0184
     14 C         140.7009  139.6947  166.1852 C.ar    1  UNL1       -0.0034
     15 C         139.5913  139.7472  167.1933 C.ar    1  UNL1        0.0130
     16 C         139.9089  139.9108  168.6502 C.ar    1  UNL1        0.1023
     17 C         141.8663  141.5556  171.1277 C.3     1  UNL1        0.2525
     18 O         141.6534  140.1853  170.5558 O.3     1  UNL1       -0.4708
     19 C         138.7994  139.9633  169.6583 C.1     1  UNL1        0.1035
     20 N         137.6900  140.0158  170.6665 N.1     1  UNL1       -0.1907
     21 C         143.0687  139.4086  158.7626 C.3     1  UNL1        0.0769
     22 C         141.7661  139.9490  158.2514 C.3     1  UNL1        0.0433
     23 C         140.8640  140.7225  159.1669 C.ar    1  UNL1       -0.0249
     24 C         141.0663  142.1975  159.3490 C.ar    1  UNL1       -0.0043
     25 C         140.1643  142.9709  160.2644 C.ar    1  UNL1        0.0059
     26 C         139.0598  142.2692  160.9978 C.ar    1  UNL1        0.0748
     27 C         138.8574  140.7941  160.8157 C.ar    1  UNL1        0.0233
     28 C         139.7595  140.0207  159.9002 C.ar    1  UNL1       -0.0260
     29 C         139.5572  138.5456  159.7181 C.3     1  UNL1        0.0305
     30 C         137.6931  140.3777  161.6648 C.3     1  UNL1        0.2352
     31 O         137.1759  141.5954  162.3716 O.3     1  UNL1       -0.4404
     32 C         138.0206  142.7644  161.9594 C.2     1  UNL1        0.3413
     33 O         137.8550  144.1801  162.4268 O.2     1  UNL1       -0.2449
@<TRIPOS>BOND
     1    17    18    1
     2    18    11    1
     3    11    12   ar
     4    12    13   ar
     5    13     8    1
     6     8     9    1
     7     8    10    1
     8     8     7    1
     9     7     1    1
    10     1     2    1
    11     2     3    1
    12     3     4    1
    13     4    21    1
    14    21    22    1
    15    22    23    1
    16    23    24   ar
    17    24    25   ar
    18    25    26   ar
    19    26    27   ar
    20    27    28   ar
    21    28    29    1
    22    27    30    1
    23    30    31    1
    24    31    32    1
    25    32    33    2
    26     4     5    1
    27     5     6    1
    28    13    14   ar
    29    14    15   ar
    30    15    16   ar
    31    16    19    1
    32    19    20    3
    33    16    11   ar
    34     6     1    1
    35    28    23   ar
    36    32    26    1
@<TRIPOS>MOLECULE
*****
 33 36 0 0 0
SMALL
GASTEIGER

@<TRIPOS>ATOM
      1 N         143.6570  139.6726  163.3608 N.3     1  UNL1       -0.2700
      2 C         142.8077  138.6238  164.0157 C.3     1  UNL1        0.0897
      3 C         142.2818  138.8433  165.4032 C.3     1  UNL1        0.0897
      4 N         142.6052  140.1115  166.1359 N.3     1  UNL1       -0.2700
      5 C         143.4545  141.1604  165.4812 C.3     1  UNL1        0.0897
      6 C         143.9804  140.9408  164.0936 C.3     1  UNL1        0.0897
      7 C         144.1829  139.4531  161.9733 C.3     1  UNL1        0.0762
      8 C         143.2410  139.0955  160.8620 C.3     1  UNL1        0.0337
      9 C         143.6962  137.6681  160.9356 C.3     1  UNL1        0.0058
     10 C         142.7858  140.5229  160.7885 C.3     1  UNL1        0.0058
     11 C         139.9373  138.8625  158.6755 C.ar    1  UNL1        0.1479
     12 C         140.8791  139.2202  159.7867 C.ar    1  UNL1        0.0334
     13 C         142.2991  138.7379  159.7508 C.ar    1  UNL1       -0.0184
     14 C         142.7770  137.8980  158.6036 C.ar    1  UNL1       -0.0034
     15 C         141.8351  137.5403  157.4923 C.ar    1  UNL1        0.0130
     16 C         140.4153  138.0226  157.5283 C.ar    1  UNL1        0.1023
     17 C         138.0657  140.2663  159.8055 C.3     1  UNL1        0.2525
     18 O         138.5173  139.3448  158.7114 O.3     1  UNL1       -0.4708
     19 C         139.4733  137.6650  156.4170 C.1     1  UNL1        0.1035
     20 N         138.5314  137.3074  155.3058 N.1     1  UNL1       -0.1907
     21 C         142.0793  140.3310  167.5235 C.3     1  UNL1        0.0769
     22 C         140.7064  140.9012  167.7237 C.3     1  UNL1        0.0433
     23 C         140.0162  141.6087  166.5954 C.ar    1  UNL1       -0.0249
     24 C         140.2655  143.0692  166.3616 C.ar    1  UNL1       -0.0043
     25 C         139.5754  143.7767  165.2334 C.ar    1  UNL1        0.0059
     26 C         138.6359  143.0237  164.3388 C.ar    1  UNL1        0.0748
     27 C         138.3865  141.5632  164.5725 C.ar    1  UNL1        0.0233
     28 C         139.0767  140.8556  165.7008 C.ar    1  UNL1       -0.0260
     29 C         138.8274  139.3950  165.9346 C.3     1  UNL1        0.0305
     30 C         137.4146  141.0868  163.5340 C.3     1  UNL1        0.2352
     31 O         137.0633  142.2530  162.6584 O.3     1  UNL1       -0.4404
     32 C         137.8181  143.4501  163.1558 C.2     1  UNL1        0.3413
     33 O         137.7644  144.8310  162.5726 O.2     1  UNL1       -0.2449
@<TRIPOS>BOND
     1    17    18    1
     2    18    11    1
     3    11    12   ar
     4    12    13   ar
     5    13     8    1
     6     8     9    1
     7     8    10    1
     8     8     7    1
     9     7     1    1
    10     1     2    1
    11     2     3    1
    12     3     4    1
    13     4    21    1
    14    21    22    1
    15    22    23    1
    16    23    24   ar
    17    24    25   ar
    18    25    26   ar
    19    26    27   ar
    20    27    28   ar
    21    28    29    1
    22    27    30    1
    23    30    31    1
    24    31    32    1
    25    32    33    2
    26     4     5    1
    27     5     6    1
    28    13    14   ar
    29    14    15   ar
    30    15    16   ar
    31    16    19    1
    32    19    20    3
    33    16    11   ar
    34     6     1    1
    35    28    23   ar
    36    32    26    1
@<TRIPOS>MOLECULE
*****
 33 36 0 0 0
SMALL
GASTEIGER

@<TRIPOS>ATOM
      1 N         141.2752  138.3575  161.3704 N.3     1  UNL1       -0.2700
      2 C         142.7156  138.5906  161.7184 C.3     1  UNL1        0.0897
      3 C         143.6125  139.3113  160.7561 C.3     1  UNL1        0.0897
      4 N         143.0691  139.7990  159.4457 N.3     1  UNL1       -0.2700
      5 C         141.6288  139.5659  159.0977 C.3     1  UNL1        0.0897
      6 C         140.7319  138.8451  160.0601 C.3     1  UNL1        0.0897
      7 C         140.3782  137.6368  162.3327 C.3     1  UNL1        0.0762
      8 C         140.1651  138.1840  163.7129 C.3     1  UNL1        0.0337
      9 C         141.0613  137.1195  164.2732 C.3     1  UNL1        0.0058
     10 C         139.2690  139.2484  163.1526 C.3     1  UNL1        0.0058
     11 C         140.8781  139.9165  167.2114 C.ar    1  UNL1        0.1479
     12 C         141.0913  139.3694  165.8312 C.ar    1  UNL1        0.0334
     13 C         139.9520  138.7311  165.0931 C.ar    1  UNL1       -0.0184
     14 C         138.5996  138.6401  165.7355 C.ar    1  UNL1       -0.0034
     15 C         138.3864  139.1873  167.1158 C.ar    1  UNL1        0.0130
     16 C         139.5257  139.8255  167.8538 C.ar    1  UNL1        0.1023
     17 C         142.4766  141.9325  167.5735 C.3     1  UNL1        0.2525
     18 O         142.0175  140.5548  167.9494 O.3     1  UNL1       -0.4708
     19 C         139.3126  140.3727  169.2340 C.1     1  UNL1        0.1035
     20 N         139.0995  140.9199  170.6143 N.1     1  UNL1       -0.1907
     21 C         143.9661  140.5197  158.4835 C.3     1  UNL1        0.0769
     22 C         144.3000  141.9647  158.7079 C.3     1  UNL1        0.0433
     23 C         143.3081  142.8683  159.3787 C.ar    1  UNL1       -0.0249
     24 C         142.1427  143.4089  158.6045 C.ar    1  UNL1       -0.0043
     25 C         141.1509  144.3124  159.2753 C.ar    1  UNL1        0.0059
     26 C         141.3244  144.6752  160.7203 C.ar    1  UNL1        0.0748
     27 C         142.4899  144.1346  161.4946 C.ar    1  UNL1        0.0233
     28 C         143.4817  143.2311  160.8238 C.ar    1  UNL1       -0.0260
     29 C         144.6472  142.6904  161.5980 C.3     1  UNL1        0.0305
     30 C         142.4007  144.6628  162.8957 C.3     1  UNL1        0.2352
     31 O         141.1802  145.5299  162.9873 O.3     1  UNL1       -0.4404
     32 C         140.5150  145.5376  161.6429 C.2     1  UNL1        0.3413
     33 O         139.2606  146.2777  161.2840 O.2     1  UNL1       -0.2449
@<TRIPOS>BOND
     1    17    18    1
     2    18    11    1
     3    11    12   ar
     4    12    13   ar
     5    13     8    1
     6     8     9    1
     7     8    10    1
     8     8     7    1
     9     7     1    1
    10     1     2    1
    11     2     3    1
    12     3     4    1
    13     4    21    1
    14    21    22    1
    15    22    23    1
    16    23    24   ar
    17    24    25   ar
    18    25    26   ar
    19    26    27   ar
    20    27    28   ar
    21    28    29    1
    22    27    30    1
    23    30    31    1
    24    31    32    1
    25    32    33    2
    26     4     5    1
    27     5     6    1
    28    13    14   ar
    29    14    15   ar
    30    15    16   ar
    31    16    19    1
    32    19    20    3
    33    16    11   ar
    34     6     1    1
    35    28    23   ar
    36    32    26    1
@<TRIPOS>MOLECULE
*****
 33 36 0 0 0
SMALL
GASTEIGER

@<TRIPOS>ATOM
      1 N         138.6333  138.7278  163.8946 N.3     1  UNL1       -0.2700
      2 C         138.9802  137.8208  162.7513 C.3     1  UNL1        0.0897
      3 C         138.7249  138.2613  161.3403 C.3     1  UNL1        0.0897
      4 N         138.1228  139.6088  161.0726 N.3     1  UNL1       -0.2700
      5 C         137.7758  140.5158  162.2158 C.3     1  UNL1        0.0897
      6 C         138.0311  140.0753  163.6268 C.3     1  UNL1        0.0897
      7 C         138.8885  138.2874  165.3055 C.3     1  UNL1        0.0762
      8 C         139.5900  139.2051  166.2624 C.3     1  UNL1        0.0337
      9 C         140.8319  139.1292  165.4245 C.3     1  UNL1        0.0058
     10 C         138.3481  139.2809  167.1002 C.3     1  UNL1        0.0058
     11 C         142.2285  141.7730  167.7435 C.ar    1  UNL1        0.1479
     12 C         141.5270  140.8554  166.7866 C.ar    1  UNL1        0.0334
     13 C         140.2916  140.1228  167.2192 C.ar    1  UNL1       -0.0184
     14 C         139.7578  140.3079  168.6087 C.ar    1  UNL1       -0.0034
     15 C         140.4593  141.2257  169.5657 C.ar    1  UNL1        0.0130
     16 C         141.6947  141.9582  169.1330 C.ar    1  UNL1        0.1023
     17 C         143.7482  142.6997  165.8508 C.3     1  UNL1        0.2525
     18 O         143.4639  142.5056  167.3108 O.3     1  UNL1       -0.4708
     19 C         142.3963  142.8759  170.0898 C.1     1  UNL1        0.1035
     20 N         143.0979  143.7937  171.0467 N.1     1  UNL1       -0.1907
     21 C         137.8675  140.0492  159.6616 C.3     1  UNL1        0.0769
     22 C         138.9764  140.6540  158.8525 C.3     1  UNL1        0.0433
     23 C         140.1316  141.3181  159.5415 C.ar    1  UNL1       -0.0249
     24 C         139.9920  142.7195  160.0577 C.ar    1  UNL1       -0.0043
     25 C         141.1470  143.3835  160.7467 C.ar    1  UNL1        0.0059
     26 C         142.4418  142.6462  160.9195 C.ar    1  UNL1        0.0748
     27 C         142.5814  141.2447  160.4034 C.ar    1  UNL1        0.0233
     28 C         141.4264  140.5806  159.7144 C.ar    1  UNL1       -0.0260
     29 C         141.5659  139.1791  159.1981 C.3     1  UNL1        0.0305
     30 C         143.9698  140.7713  160.7171 C.3     1  UNL1        0.2352
     31 O         144.6882  141.8802  161.4272 O.3     1  UNL1       -0.4404
     32 C         143.7438  143.0389  161.5523 C.2     1  UNL1        0.3413
     33 O         144.0482  144.3587  162.1970 O.2     1  UNL1       -0.2449
@<TRIPOS>BOND
     1    17    18    1
     2    18    11    1
     3    11    12   ar
     4    12    13   ar
     5    13     8    1
     6     8     9    1
     7     8    10    1
     8     8     7    1
     9     7     1    1
    10     1     2    1
    11     2     3    1
    12     3     4    1
    13     4    21    1
    14    21    22    1
    15    22    23    1
    16    23    24   ar
    17    24    25   ar
    18    25    26   ar
    19    26    27   ar
    20    27    28   ar
    21    28    29    1
    22    27    30    1
    23    30    31    1
    24    31    32    1
    25    32    33    2
    26     4     5    1
    27     5     6    1
    28    13    14   ar
    29    14    15   ar
    30    15    16   ar
    31    16    19    1
    32    19    20    3
    33    16    11   ar
    34     6     1    1
    35    28    23   ar
    36    32    26    1
@<TRIPOS>MOLECULE
*****
 33 36 0 0 0
SMALL
GASTEIGER

@<TRIPOS>ATOM
      1 N         139.4237  138.8765  162.6017 N.3     1  UNL1       -0.2700
      2 C         139.2485  139.8697  161.4914 C.3     1  UNL1        0.0897
      3 C         140.2536  139.9373  160.3800 C.3     1  UNL1        0.0897
      4 N         141.4339  139.0116  160.3788 N.3     1  UNL1       -0.2700
      5 C         141.6091  138.0183  161.4890 C.3     1  UNL1        0.0897
      6 C         140.6040  137.9508  162.6005 C.3     1  UNL1        0.0897
      7 C         138.4187  138.8089  163.7132 C.3     1  UNL1        0.0762
      8 C         138.7644  139.3455  165.0706 C.3     1  UNL1        0.0337
      9 C         138.8422  137.9457  165.6040 C.3     1  UNL1        0.0058
     10 C         138.6866  140.7452  164.5370 C.3     1  UNL1        0.0058
     11 C         140.4834  141.5025  167.9240 C.ar    1  UNL1        0.1479
     12 C         140.1377  140.9660  166.5666 C.ar    1  UNL1        0.0334
     13 C         139.1101  139.8820  166.4279 C.ar    1  UNL1       -0.0184
     14 C         138.4283  139.3347  167.6467 C.ar    1  UNL1       -0.0034
     15 C         138.7740  139.8713  169.0042 C.ar    1  UNL1        0.0130
     16 C         139.8015  140.9552  169.1428 C.ar    1  UNL1        0.1023
     17 C         142.9570  142.2304  168.2429 C.3     1  UNL1        0.2525
     18 O         141.5110  142.5865  168.0626 O.3     1  UNL1       -0.4708
     19 C         140.1473  141.4918  170.5002 C.1     1  UNL1        0.1035
     20 N         140.4930  142.0284  171.8576 N.1     1  UNL1       -0.1907
     21 C         142.4389  139.0792  159.2673 C.3     1  UNL1        0.0769
     22 C         143.5976  140.0271  159.3605 C.3     1  UNL1        0.0433
     23 C         143.7777  140.8733  160.5860 C.ar    1  UNL1       -0.0249
     24 C         144.5294  140.3335  161.7664 C.ar    1  UNL1       -0.0043
     25 C         144.7094  141.1796  162.9918 C.ar    1  UNL1        0.0059
     26 C         144.1377  142.5657  163.0367 C.ar    1  UNL1        0.0748
     27 C         143.3859  143.1055  161.8563 C.ar    1  UNL1        0.0233
     28 C         143.2059  142.2594  160.6309 C.ar    1  UNL1       -0.0260
     29 C         142.4541  142.7992  159.4504 C.3     1  UNL1        0.0305
     30 C         142.9385  144.4981  162.1891 C.3     1  UNL1        0.2352
     31 O         143.4138  144.8188  163.5751 O.3     1  UNL1       -0.4404
     32 C         144.1549  143.6245  164.0990 C.2     1  UNL1        0.3413
     33 O         144.8000  143.5094  165.4483 O.2     1  UNL1       -0.2449
@<TRIPOS>BOND
     1    17    18    1
     2    18    11    1
     3    11    12   ar
     4    12    13   ar
     5    13     8    1
     6     8     9    1
     7     8    10    1
     8     8     7    1
     9     7     1    1
    10     1     2    1
    11     2     3    1
    12     3     4    1
    13     4    21    1
    14    21    22    1
    15    22    23    1
    16    23    24   ar
    17    24    25   ar
    18    25    26   ar
    19    26    27   ar
    20    27    28   ar
    21    28    29    1
    22    27    30    1
    23    30    31    1
    24    31    32    1
    25    32    33    2
    26     4     5    1
    27     5     6    1
    28    13    14   ar
    29    14    15   ar
    30    15    16   ar
    31    16    19    1
    32    19    20    3
    33    16    11   ar
    34     6     1    1
    35    28    23   ar
    36    32    26    1
@<TRIPOS>MOLECULE
*****
 33 36 0 0 0
SMALL
GASTEIGER

@<TRIPOS>ATOM
      1 N         143.4534  139.3446  163.3608 N.3     1  UNL1       -0.2700
      2 C         142.5041  138.3432  163.9493 C.3     1  UNL1        0.0897
      3 C         141.9550  138.5514  165.3295 C.3     1  UNL1        0.0897
      4 N         142.3550  139.7609  166.1213 N.3     1  UNL1       -0.2700
      5 C         143.3043  140.7623  165.5330 C.3     1  UNL1        0.0897
      6 C         143.8534  140.5541  164.1527 C.3     1  UNL1        0.0897
      7 C         144.0026  139.1365  161.9806 C.3     1  UNL1        0.0762
      8 C         143.0752  138.8260  160.8433 C.3     1  UNL1        0.0337
      9 C         143.5818  137.4143  160.8156 C.3     1  UNL1        0.0058
     10 C         142.5686  140.2376  160.8710 C.3     1  UNL1        0.0058
     11 C         141.7281  137.4630  157.3681 C.ar    1  UNL1        0.1479
     12 C         142.6555  137.7735  158.5053 C.ar    1  UNL1        0.0334
     13 C         142.1478  138.5155  159.7060 C.ar    1  UNL1       -0.0184
     14 C         140.7126  138.9469  159.7694 C.ar    1  UNL1       -0.0034
     15 C         139.7851  138.6364  158.6321 C.ar    1  UNL1        0.0130
     16 C         140.2929  137.8944  157.4314 C.ar    1  UNL1        0.1023
     17 C         142.3444  135.2252  156.2005 C.3     1  UNL1        0.2525
     18 O         142.2358  136.7210  156.1673 O.3     1  UNL1       -0.4708
     19 C         139.3655  137.5839  156.2941 C.1     1  UNL1        0.1035
     20 N         138.4381  137.2734  155.1568 N.1     1  UNL1       -0.1907
     21 C         141.8058  139.9690  167.5016 C.3     1  UNL1        0.0769
     22 C         140.4894  140.6634  167.6881 C.3     1  UNL1        0.0433
     23 C         139.8876  141.4461  166.5588 C.ar    1  UNL1       -0.0249
     24 C         140.2621  142.8848  166.3601 C.ar    1  UNL1       -0.0043
     25 C         139.6604  143.6675  165.2308 C.ar    1  UNL1        0.0059
     26 C         138.6840  143.0113  164.3002 C.ar    1  UNL1        0.0748
     27 C         138.3094  141.5725  164.4988 C.ar    1  UNL1        0.0233
     28 C         138.9112  140.7899  165.6281 C.ar    1  UNL1       -0.0260
     29 C         138.5366  139.3510  165.8268 C.3     1  UNL1        0.0305
     30 C         137.3271  141.1973  163.4291 C.3     1  UNL1        0.2352
     31 O         137.0946  142.4043  162.5693 O.3     1  UNL1       -0.4404
     32 C         137.9332  143.5254  163.1077 C.2     1  UNL1        0.3413
     33 O         138.0079  144.9164  162.5512 O.2     1  UNL1       -0.2449
@<TRIPOS>BOND
     1    17    18    1
     2    18    11    1
     3    11    12   ar
     4    12    13   ar
     5    13     8    1
     6     8     9    1
     7     8    10    1
     8     8     7    1
     9     7     1    1
    10     1     2    1
    11     2     3    1
    12     3     4    1
    13     4    21    1
    14    21    22    1
    15    22    23    1
    16    23    24   ar
    17    24    25   ar
    18    25    26   ar
    19    26    27   ar
    20    27    28   ar
    21    28    29    1
    22    27    30    1
    23    30    31    1
    24    31    32    1
    25    32    33    2
    26     4     5    1
    27     5     6    1
    28    13    14   ar
    29    14    15   ar
    30    15    16   ar
    31    16    19    1
    32    19    20    3
    33    16    11   ar
    34     6     1    1
    35    28    23   ar
    36    32    26    1
@<TRIPOS>MOLECULE
*****
 33 36 0 0 0
SMALL
GASTEIGER

@<TRIPOS>ATOM
      1 N         144.4441  140.8039  162.9131 N.3     1  UNL1       -0.2700
      2 C         144.9157  142.2064  162.6670 C.3     1  UNL1        0.0897
      3 C         144.6876  142.8510  161.3320 C.3     1  UNL1        0.0897
      4 N         143.9878  142.0932  160.2430 N.3     1  UNL1       -0.2700
      5 C         143.5161  140.6907  160.4890 C.3     1  UNL1        0.0897
      6 C         143.7443  140.0460  161.8241 C.3     1  UNL1        0.0897
      7 C         144.6722  140.1592  164.2482 C.3     1  UNL1        0.0762
      8 C         143.5712  140.1336  165.2666 C.3     1  UNL1        0.0337
      9 C         143.4508  138.6479  165.0989 C.3     1  UNL1        0.0058
     10 C         143.6917  141.6193  165.4342 C.3     1  UNL1        0.0058
     11 C         139.9443  139.9218  166.8635 C.ar    1  UNL1        0.1479
     12 C         141.0452  139.9474  165.8451 C.ar    1  UNL1        0.0334
     13 C         142.4703  140.1080  166.2850 C.ar    1  UNL1       -0.0184
     14 C         142.7943  140.2429  167.7433 C.ar    1  UNL1       -0.0034
     15 C         141.6933  140.2172  168.7618 C.ar    1  UNL1        0.0130
     16 C         140.2683  140.0567  168.3218 C.ar    1  UNL1        0.1023
     17 C         138.1268  140.0964  165.0151 C.3     1  UNL1        0.2525
     18 O         138.5192  139.7612  166.4236 O.3     1  UNL1       -0.4708
     19 C         139.1673  140.0310  169.3402 C.1     1  UNL1        0.1035
     20 N         138.0663  140.0054  170.3586 N.1     1  UNL1       -0.1907
     21 C         143.7597  142.7378  158.9079 C.3     1  UNL1        0.0769
     22 C         142.4990  143.5098  158.6534 C.3     1  UNL1        0.0433
     23 C         141.4203  143.5490  159.6951 C.ar    1  UNL1       -0.0249
     24 C         141.4084  144.6427  160.7215 C.ar    1  UNL1       -0.0043
     25 C         140.3298  144.6819  161.7632 C.ar    1  UNL1        0.0059
     26 C         139.2631  143.6274  161.7784 C.ar    1  UNL1        0.0748
     27 C         139.2750  142.5337  160.7519 C.ar    1  UNL1        0.0233
     28 C         140.3536  142.4945  159.7102 C.ar    1  UNL1       -0.0260
     29 C         140.3656  141.4008  158.6837 C.3     1  UNL1        0.0305
     30 C         138.1007  141.6382  161.0149 C.3     1  UNL1        0.2352
     31 O         137.3631  142.1786  162.2040 O.3     1  UNL1       -0.4404
     32 C         138.0814  143.4079  162.6758 C.2     1  UNL1        0.3413
     33 O         137.6873  144.2670  163.8406 O.2     1  UNL1       -0.2449
@<TRIPOS>BOND
     1    17    18    1
     2    18    11    1
     3    11    12   ar
     4    12    13   ar
     5    13     8    1
     6     8     9    1
     7     8    10    1
     8     8     7    1
     9     7     1    1
    10     1     2    1
    11     2     3    1
    12     3     4    1
    13     4    21    1
    14    21    22    1
    15    22    23    1
    16    23    24   ar
    17    24    25   ar
    18    25    26   ar
    19    26    27   ar
    20    27    28   ar
    21    28    29    1
    22    27    30    1
    23    30    31    1
    24    31    32    1
    25    32    33    2
    26     4     5    1
    27     5     6    1
    28    13    14   ar
    29    14    15   ar
    30    15    16   ar
    31    16    19    1
    32    19    20    3
    33    16    11   ar
    34     6     1    1
    35    28    23   ar
    36    32    26    1
