@<TRIPOS>MOLECULE
*****
 24 26 0 0 0
SMALL
GASTEIGER

@<TRIPOS>ATOM
      1 C         141.1693  140.4239  168.7390 C.3     1  UNL1        0.0489
      2 C         140.1575  140.5949  169.8330 C.3     1  UNL1        0.0236
      3 C         140.6058  140.6885  171.2614 C.3     1  UNL1        0.0690
      4 N         142.0660  140.6111  171.5958 N.3     1  UNL1       -0.2974
      5 C         143.0779  140.4401  170.5018 C.3     1  UNL1        0.0690
      6 C         142.6295  140.3465  169.0734 C.3     1  UNL1        0.0236
      7 H         142.1813  139.8204  172.2298 H       1  UNL1        0.1232
      8 C         141.7433  140.2600  167.3629 C.ar    1  UNL1       -0.0204
      9 C         142.6517  139.1050  167.0618 C.ar    1  UNL1       -0.0042
     10 C         143.2257  138.9411  165.6857 C.ar    1  UNL1       -0.0003
     11 C         142.8912  139.9323  164.6107 C.ar    1  UNL1       -0.0000
     12 C         141.9828  141.0873  164.9117 C.ar    1  UNL1       -0.0003
     13 C         141.4088  141.2512  166.2878 C.ar    1  UNL1       -0.0042
     14 C         139.9085  140.4444  167.9267 C.3     1  UNL1        0.1466
     15 O         138.8224  139.4472  168.2024 O.3     1  UNL1       -0.3487
     16 C         138.0358  138.8619  167.0672 C.3     1  UNL1        0.1687
     17 CL        140.9562  137.0723  163.1597 Cl      1  UNL1       -0.0613
     18 C         140.0024  138.0924  163.7070 C.ar    1  UNL1        0.1390
     19 C         139.4960  137.9671  165.1134 C.ar    1  UNL1        0.0290
     20 C         138.5422  138.9872  165.6607 C.ar    1  UNL1        0.0120
     21 C         138.0946  140.1325  164.8018 C.ar    1  UNL1        0.0290
     22 C         138.6010  140.2578  163.3954 C.ar    1  UNL1        0.1390
     23 CL        138.1535  141.4031  162.5363 Cl      1  UNL1       -0.0613
     24 N         139.5548  139.2377  162.8480 N.ar    1  UNL1       -0.2226
@<TRIPOS>BOND
     1    17    18    1
     2    18    19   ar
     3    19    20   ar
     4    20    16    1
     5    16    15    1
     6    15    14    1
     7    14     1    1
     8     1     8    1
     9     8     9   ar
    10     9    10   ar
    11    10    11   ar
    12    11    12   ar
    13    12    13   ar
    14     1     2    1
    15     2     3    1
    16     3     4    1
    17     4     5    1
    18     5     6    1
    19    20    21   ar
    20    21    22   ar
    21    22    23    1
    22    22    24   ar
    23    24    18   ar
    24     6     1    1
    25    13     8   ar
    26     4     7    1
@<TRIPOS>MOLECULE
*****
 24 26 0 0 0
SMALL
GASTEIGER

@<TRIPOS>ATOM
      1 C         141.1707  140.4163  168.7341 C.3     1  UNL1        0.0489
      2 C         140.1582  140.5879  169.8274 C.3     1  UNL1        0.0236
      3 C         140.6055  140.6777  171.2564 C.3     1  UNL1        0.0690
      4 N         142.0651  140.5958  171.5920 N.3     1  UNL1       -0.2974
      5 C         143.0776  140.4242  170.4987 C.3     1  UNL1        0.0690
      6 C         142.6303  140.3344  169.0697 C.3     1  UNL1        0.0236
      7 H         142.1778  139.8037  172.2247 H       1  UNL1        0.1232
      8 C         141.7455  140.2534  167.3582 C.ar    1  UNL1       -0.0204
      9 C         141.4174  141.2493  166.2856 C.ar    1  UNL1       -0.0042
     10 C         141.9922  141.0864  164.9097 C.ar    1  UNL1       -0.0003
     11 C         142.8952  139.9276  164.6065 C.ar    1  UNL1       -0.0000
     12 C         143.2232  138.9317  165.6791 C.ar    1  UNL1       -0.0003
     13 C         142.6484  139.0946  167.0550 C.ar    1  UNL1       -0.0042
     14 C         139.9106  140.4416  167.9207 C.3     1  UNL1        0.1466
     15 O         138.8188  139.4513  168.1982 O.3     1  UNL1       -0.3487
     16 C         138.0343  138.8622  167.0634 C.3     1  UNL1        0.1687
     17 CL        138.1389  141.4214  162.5424 Cl      1  UNL1       -0.0613
     18 C         138.5894  140.2730  163.3958 C.ar    1  UNL1        0.1390
     19 C         138.0866  140.1418  164.8029 C.ar    1  UNL1        0.0290
     20 C         138.5371  138.9934  165.6563 C.ar    1  UNL1        0.0120
     21 C         139.4904  137.9763  165.1026 C.ar    1  UNL1        0.0290
     22 C         139.9932  138.1075  163.6955 C.ar    1  UNL1        0.1390
     23 CL        140.9465  137.0903  163.1417 Cl      1  UNL1       -0.0613
     24 N         139.5427  139.2559  162.8421 N.ar    1  UNL1       -0.2226
@<TRIPOS>BOND
     1    17    18    1
     2    18    19   ar
     3    19    20   ar
     4    20    16    1
     5    16    15    1
     6    15    14    1
     7    14     1    1
     8     1     8    1
     9     8     9   ar
    10     9    10   ar
    11    10    11   ar
    12    11    12   ar
    13    12    13   ar
    14     1     2    1
    15     2     3    1
    16     3     4    1
    17     4     5    1
    18     5     6    1
    19    20    21   ar
    20    21    22   ar
    21    22    23    1
    22    22    24   ar
    23    24    18   ar
    24     6     1    1
    25    13     8   ar
    26     4     7    1
@<TRIPOS>MOLECULE
*****
 24 26 0 0 0
SMALL
GASTEIGER

@<TRIPOS>ATOM
      1 C         140.9993  140.2953  168.5529 C.3     1  UNL1        0.0489
      2 C         142.2095  140.2699  169.4389 C.3     1  UNL1        0.0236
      3 C         142.0573  140.4399  170.9215 C.3     1  UNL1        0.0690
      4 N         140.6950  140.6353  171.5180 N.3     1  UNL1       -0.2974
      5 C         139.4848  140.6607  170.6321 C.3     1  UNL1        0.0690
      6 C         139.6370  140.4907  169.1495 C.3     1  UNL1        0.0236
      7 H         140.7157  141.5265  172.0138 H       1  UNL1        0.1232
      8 C         140.1613  140.2470  167.3098 C.ar    1  UNL1       -0.0204
      9 C         140.5061  141.1183  166.1385 C.ar    1  UNL1       -0.0042
     10 C         139.6680  141.0700  164.8954 C.ar    1  UNL1       -0.0003
     11 C         138.4851  140.1504  164.8237 C.ar    1  UNL1       -0.0000
     12 C         138.1403  139.2792  165.9950 C.ar    1  UNL1       -0.0003
     13 C         138.9783  139.3274  167.2381 C.ar    1  UNL1       -0.0042
     14 C         142.0706  140.0831  167.5246 C.3     1  UNL1        0.1466
     15 O         143.1523  139.0725  167.7661 O.3     1  UNL1       -0.3487
     16 C         143.5887  138.1614  166.6572 C.3     1  UNL1        0.1687
     17 CL        139.9815  137.4766  162.9804 Cl      1  UNL1       -0.0613
     18 C         141.2951  138.0517  163.4203 C.ar    1  UNL1        0.1390
     19 C         141.7851  137.8190  164.8187 C.ar    1  UNL1        0.0290
     20 C         143.0987  138.3942  165.2587 C.ar    1  UNL1        0.0120
     21 C         143.9224  139.2021  164.3001 C.ar    1  UNL1        0.0290
     22 C         143.4324  139.4348  162.9017 C.ar    1  UNL1        0.1390
     23 CL        144.2561  140.2427  161.9430 Cl      1  UNL1       -0.0613
     24 N         142.1188  138.8596  162.4617 N.ar    1  UNL1       -0.2226
@<TRIPOS>BOND
     1    17    18    1
     2    18    19   ar
     3    19    20   ar
     4    20    16    1
     5    16    15    1
     6    15    14    1
     7    14     1    1
     8     1     8    1
     9     8     9   ar
    10     9    10   ar
    11    10    11   ar
    12    11    12   ar
    13    12    13   ar
    14     1     2    1
    15     2     3    1
    16     3     4    1
    17     4     5    1
    18     5     6    1
    19    20    21   ar
    20    21    22   ar
    21    22    23    1
    22    22    24   ar
    23    24    18   ar
    24     6     1    1
    25    13     8   ar
    26     4     7    1
@<TRIPOS>MOLECULE
*****
 24 26 0 0 0
SMALL
GASTEIGER

@<TRIPOS>ATOM
      1 C         141.1253  140.2983  168.5634 C.3     1  UNL1        0.0489
      2 C         142.3250  140.2002  169.4585 C.3     1  UNL1        0.0236
      3 C         142.1719  140.3774  170.9401 C.3     1  UNL1        0.0690
      4 N         140.8191  140.6526  171.5266 N.3     1  UNL1       -0.2974
      5 C         139.6194  140.7506  170.6316 C.3     1  UNL1        0.0690
      6 C         139.7725  140.5735  169.1500 C.3     1  UNL1        0.0236
      7 H         140.8888  141.5405  172.0239 H       1  UNL1        0.1232
      8 C         140.2954  140.3010  167.3139 C.ar    1  UNL1       -0.0204
      9 C         139.0846  139.4212  167.2159 C.ar    1  UNL1       -0.0042
     10 C         138.2547  139.4239  165.9664 C.ar    1  UNL1       -0.0003
     11 C         138.6356  140.3067  164.8150 C.ar    1  UNL1       -0.0000
     12 C         139.8465  141.1866  164.9130 C.ar    1  UNL1       -0.0003
     13 C         140.6764  141.1838  166.1625 C.ar    1  UNL1       -0.0042
     14 C         142.1900  140.0240  167.5429 C.3     1  UNL1        0.1466
     15 O         143.1228  138.8636  167.7255 O.3     1  UNL1       -0.3487
     16 C         143.6956  138.1661  166.5274 C.3     1  UNL1        0.1687
     17 CL        144.0209  140.4048  161.8496 Cl      1  UNL1       -0.0613
     18 C         143.2825  139.5388  162.8267 C.ar    1  UNL1        0.1390
     19 C         143.8582  139.2854  164.1885 C.ar    1  UNL1        0.0290
     20 C         143.1198  138.4195  165.1656 C.ar    1  UNL1        0.0120
     21 C         141.8058  137.8068  164.7811 C.ar    1  UNL1        0.0290
     22 C         141.2301  138.0602  163.4193 C.ar    1  UNL1        0.1390
     23 CL        139.9160  137.4476  163.0347 Cl      1  UNL1       -0.0613
     24 N         141.9685  138.9262  162.4422 N.ar    1  UNL1       -0.2226
@<TRIPOS>BOND
     1    17    18    1
     2    18    19   ar
     3    19    20   ar
     4    20    16    1
     5    16    15    1
     6    15    14    1
     7    14     1    1
     8     1     8    1
     9     8     9   ar
    10     9    10   ar
    11    10    11   ar
    12    11    12   ar
    13    12    13   ar
    14     1     2    1
    15     2     3    1
    16     3     4    1
    17     4     5    1
    18     5     6    1
    19    20    21   ar
    20    21    22   ar
    21    22    23    1
    22    22    24   ar
    23    24    18   ar
    24     6     1    1
    25    13     8   ar
    26     4     7    1
@<TRIPOS>MOLECULE
*****
 24 26 0 0 0
SMALL
GASTEIGER

@<TRIPOS>ATOM
      1 C         140.5186  141.4087  168.3826 C.3     1  UNL1        0.0489
      2 C         140.1821  140.5847  169.5899 C.3     1  UNL1        0.0236
      3 C         140.2628  141.1924  170.9590 C.3     1  UNL1        0.0690
      4 N         140.6799  142.6241  171.1206 N.3     1  UNL1       -0.2974
      5 C         141.0164  143.4481  169.9132 C.3     1  UNL1        0.0690
      6 C         140.9358  142.8404  168.5442 C.3     1  UNL1        0.0236
      7 H         141.5074  142.6242  171.7170 H       1  UNL1        0.1232
      8 C         140.7365  141.7802  166.9457 C.ar    1  UNL1       -0.0204
      9 C         140.1180  143.0296  166.3921 C.ar    1  UNL1       -0.0042
     10 C         140.3359  143.4011  164.9552 C.ar    1  UNL1       -0.0003
     11 C         141.1723  142.5233  164.0721 C.ar    1  UNL1       -0.0000
     12 C         141.7907  141.2740  164.6258 C.ar    1  UNL1       -0.0003
     13 C         141.5729  140.9024  166.0626 C.ar    1  UNL1       -0.0042
     14 C         140.1771  140.1060  167.7219 C.3     1  UNL1        0.1466
     15 O         138.8678  139.4362  168.0167 O.3     1  UNL1       -0.3487
     16 C         138.0850  138.7986  166.9073 C.3     1  UNL1        0.1687
     17 CL        140.4225  137.6179  162.4193 Cl      1  UNL1       -0.0613
     18 C         139.5684  138.5424  163.2353 C.ar    1  UNL1        0.1390
     19 C         139.2538  138.2083  164.6633 C.ar    1  UNL1        0.0290
     20 C         138.3996  139.1328  165.4792 C.ar    1  UNL1        0.0120
     21 C         137.8601  140.3914  164.8671 C.ar    1  UNL1        0.0290
     22 C         138.1747  140.7255  163.4390 C.ar    1  UNL1        0.1390
     23 CL        137.6351  141.9841  162.8268 Cl      1  UNL1       -0.0613
     24 N         139.0288  139.8010  162.6231 N.ar    1  UNL1       -0.2226
@<TRIPOS>BOND
     1    17    18    1
     2    18    19   ar
     3    19    20   ar
     4    20    16    1
     5    16    15    1
     6    15    14    1
     7    14     1    1
     8     1     8    1
     9     8     9   ar
    10     9    10   ar
    11    10    11   ar
    12    11    12   ar
    13    12    13   ar
    14     1     2    1
    15     2     3    1
    16     3     4    1
    17     4     5    1
    18     5     6    1
    19    20    21   ar
    20    21    22   ar
    21    22    23    1
    22    22    24   ar
    23    24    18   ar
    24     6     1    1
    25    13     8   ar
    26     4     7    1
@<TRIPOS>MOLECULE
*****
 24 26 0 0 0
SMALL
GASTEIGER

@<TRIPOS>ATOM
      1 C         141.8783  141.7626  168.0272 C.3     1  UNL1        0.0489
      2 C         141.0470  142.8767  168.5910 C.3     1  UNL1        0.0236
      3 C         140.8674  143.0014  170.0750 C.3     1  UNL1        0.0690
      4 N         141.5190  142.0122  170.9951 N.3     1  UNL1       -0.2974
      5 C         142.3502  140.8981  170.4313 C.3     1  UNL1        0.0690
      6 C         142.5299  140.7734  168.9473 C.3     1  UNL1        0.0236
      7 H         140.7719  141.5772  171.5365 H       1  UNL1        0.1232
      8 C         142.5662  140.8865  167.0226 C.ar    1  UNL1       -0.0204
      9 C         142.5607  139.3969  167.1982 C.ar    1  UNL1       -0.0042
     10 C         143.2486  138.5207  166.1936 C.ar    1  UNL1       -0.0003
     11 C         143.9421  139.1343  165.0135 C.ar    1  UNL1       -0.0000
     12 C         143.9476  140.6239  164.8379 C.ar    1  UNL1       -0.0003
     13 C         143.2597  141.5001  165.8425 C.ar    1  UNL1       -0.0042
     14 C         141.4656  142.4476  166.7582 C.3     1  UNL1        0.1466
     15 O         140.0141  142.5332  166.3899 O.3     1  UNL1       -0.3487
     16 C         139.5050  141.8157  165.1749 C.3     1  UNL1        0.1687
     17 CL        137.2732  137.5241  167.0725 Cl      1  UNL1       -0.0613
     18 C         138.2488  138.1765  166.1384 C.ar    1  UNL1        0.1390
     19 C         138.3891  139.6699  166.1237 C.ar    1  UNL1        0.0290
     20 C         139.3647  140.3223  165.1896 C.ar    1  UNL1        0.0120
     21 C         140.2000  139.4814  164.2703 C.ar    1  UNL1        0.0290
     22 C         140.0597  137.9881  164.2851 C.ar    1  UNL1        0.1390
     23 CL        140.8950  137.1472  163.3657 Cl      1  UNL1       -0.0613
     24 N         139.0841  137.3357  165.2191 N.ar    1  UNL1       -0.2226
@<TRIPOS>BOND
     1    17    18    1
     2    18    19   ar
     3    19    20   ar
     4    20    16    1
     5    16    15    1
     6    15    14    1
     7    14     1    1
     8     1     8    1
     9     8     9   ar
    10     9    10   ar
    11    10    11   ar
    12    11    12   ar
    13    12    13   ar
    14     1     2    1
    15     2     3    1
    16     3     4    1
    17     4     5    1
    18     5     6    1
    19    20    21   ar
    20    21    22   ar
    21    22    23    1
    22    22    24   ar
    23    24    18   ar
    24     6     1    1
    25    13     8   ar
    26     4     7    1
@<TRIPOS>MOLECULE
*****
 24 26 0 0 0
SMALL
GASTEIGER

@<TRIPOS>ATOM
      1 C         138.7437  140.2763  163.9810 C.3     1  UNL1        0.0489
      2 C         138.8471  139.0396  163.1385 C.3     1  UNL1        0.0236
      3 C         138.7931  137.6862  163.7831 C.3     1  UNL1        0.0690
      4 N         138.6357  137.5696  165.2702 N.3     1  UNL1       -0.2974
      5 C         138.5323  138.8063  166.1128 C.3     1  UNL1        0.0690
      6 C         138.5863  140.1597  165.4681 C.3     1  UNL1        0.0236
      7 H         139.4426  137.0473  165.6117 H       1  UNL1        0.1232
      8 C         138.6883  141.7287  164.3518 C.ar    1  UNL1       -0.0204
      9 C         139.6549  142.2840  165.3554 C.ar    1  UNL1       -0.0042
     10 C         139.5995  143.7364  165.7261 C.ar    1  UNL1       -0.0003
     11 C         138.5775  144.6335  165.0932 C.ar    1  UNL1       -0.0000
     12 C         137.6109  144.0783  164.0895 C.ar    1  UNL1       -0.0003
     13 C         137.6663  142.6259  163.7188 C.ar    1  UNL1       -0.0042
     14 C         138.8819  140.8974  162.6226 C.3     1  UNL1        0.1466
     15 O         139.9605  140.4305  161.6907 O.3     1  UNL1       -0.3487
     16 C         140.9153  141.4207  161.0925 C.3     1  UNL1        0.1687
     17 CL        143.6190  144.2468  164.5136 Cl      1  UNL1       -0.0613
     18 C         142.5237  144.1400  163.4943 C.ar    1  UNL1        0.1390
     19 C         142.2671  142.8338  162.8031 C.ar    1  UNL1        0.0290
     20 C         141.1718  142.7270  161.7838 C.ar    1  UNL1        0.0120
     21 C         140.3330  143.9265  161.4558 C.ar    1  UNL1        0.0290
     22 C         140.5896  145.2328  162.1471 C.ar    1  UNL1        0.1390
     23 CL        139.7508  146.4324  161.8191 Cl      1  UNL1       -0.0613
     24 N         141.6849  145.3395  163.1663 N.ar    1  UNL1       -0.2226
@<TRIPOS>BOND
     1    17    18    1
     2    18    19   ar
     3    19    20   ar
     4    20    16    1
     5    16    15    1
     6    15    14    1
     7    14     1    1
     8     1     8    1
     9     8     9   ar
    10     9    10   ar
    11    10    11   ar
    12    11    12   ar
    13    12    13   ar
    14     1     2    1
    15     2     3    1
    16     3     4    1
    17     4     5    1
    18     5     6    1
    19    20    21   ar
    20    21    22   ar
    21    22    23    1
    22    22    24   ar
    23    24    18   ar
    24     6     1    1
    25    13     8   ar
    26     4     7    1
@<TRIPOS>MOLECULE
*****
 24 26 0 0 0
SMALL
GASTEIGER

@<TRIPOS>ATOM
      1 C         140.1773  141.1209  167.7171 C.3     1  UNL1        0.0489
      2 C         140.5522  142.4736  168.2459 C.3     1  UNL1        0.0236
      3 C         140.1986  142.8530  169.6534 C.3     1  UNL1        0.0690
      4 N         139.4702  141.8798  170.5321 N.3     1  UNL1       -0.2974
      5 C         139.0953  140.5271  170.0033 C.3     1  UNL1        0.0690
      6 C         139.4489  140.1476  168.5958 C.3     1  UNL1        0.0236
      7 H         138.6034  142.3342  170.8194 H       1  UNL1        0.1232
      8 C         140.0387  139.9670  166.7688 C.ar    1  UNL1       -0.0204
      9 C         141.2434  139.4415  166.0459 C.ar    1  UNL1       -0.0042
     10 C         141.1048  138.2876  165.0975 C.ar    1  UNL1       -0.0003
     11 C         139.7614  137.6593  164.8721 C.ar    1  UNL1       -0.0000
     12 C         138.5568  138.1848  165.5950 C.ar    1  UNL1       -0.0003
     13 C         138.6954  139.3387  166.5434 C.ar    1  UNL1       -0.0042
     14 C         140.8577  141.6934  166.5091 C.3     1  UNL1        0.1466
     15 O         140.4361  143.0296  165.9737 O.3     1  UNL1       -0.3487
     16 C         139.9015  143.1431  164.5768 C.3     1  UNL1        0.1687
     17 CL        137.7615  139.1770  161.9902 Cl      1  UNL1       -0.0613
     18 C         138.9631  140.0063  162.3340 C.ar    1  UNL1        0.1390
     19 C         138.8315  141.1600  163.2834 C.ar    1  UNL1        0.0290
     20 C         140.0332  141.9893  163.6273 C.ar    1  UNL1        0.0120
     21 C         141.3665  141.6649  163.0216 C.ar    1  UNL1        0.0290
     22 C         141.4982  140.5111  162.0722 C.ar    1  UNL1        0.1390
     23 CL        142.8316  140.1866  161.4665 Cl      1  UNL1       -0.0613
     24 N         140.2965  139.6818  161.7283 N.ar    1  UNL1       -0.2226
@<TRIPOS>BOND
     1    17    18    1
     2    18    19   ar
     3    19    20   ar
     4    20    16    1
     5    16    15    1
     6    15    14    1
     7    14     1    1
     8     1     8    1
     9     8     9   ar
    10     9    10   ar
    11    10    11   ar
    12    11    12   ar
    13    12    13   ar
    14     1     2    1
    15     2     3    1
    16     3     4    1
    17     4     5    1
    18     5     6    1
    19    20    21   ar
    20    21    22   ar
    21    22    23    1
    22    22    24   ar
    23    24    18   ar
    24     6     1    1
    25    13     8   ar
    26     4     7    1
@<TRIPOS>MOLECULE
*****
 24 26 0 0 0
SMALL
GASTEIGER

@<TRIPOS>ATOM
      1 C         143.4750  142.1558  164.4289 C.3     1  UNL1        0.0489
      2 C         143.4007  143.1757  163.3314 C.3     1  UNL1        0.0236
      3 C         144.4894  143.2505  162.3022 C.3     1  UNL1        0.0690
      4 N         145.6523  142.3056  162.3705 N.3     1  UNL1       -0.2974
      5 C         145.7266  141.2858  163.4680 C.3     1  UNL1        0.0690
      6 C         144.6379  141.2109  164.4972 C.3     1  UNL1        0.0236
      7 H         146.4931  142.8783  162.4434 H       1  UNL1        0.1232
      8 C         143.1001  141.3694  165.6500 C.ar    1  UNL1       -0.0204
      9 C         143.2190  139.8742  165.6447 C.ar    1  UNL1       -0.0042
     10 C         142.8442  139.0877  166.8658 C.ar    1  UNL1       -0.0003
     11 C         142.3504  139.7965  168.0921 C.ar    1  UNL1       -0.0000
     12 C         142.2315  141.2917  168.0973 C.ar    1  UNL1       -0.0003
     13 C         142.6063  142.0782  166.8763 C.ar    1  UNL1       -0.0042
     14 C         142.1819  142.8276  164.7847 C.3     1  UNL1        0.1466
     15 O         141.2038  143.1903  163.7069 O.3     1  UNL1       -0.3487
     16 C         139.9704  142.3612  163.5033 C.3     1  UNL1        0.1687
     17 CL        140.7132  137.2285  163.1808 Cl      1  UNL1       -0.0613
     18 C         140.2479  138.4278  163.9523 C.ar    1  UNL1        0.1390
     19 C         140.3418  139.7948  163.3421 C.ar    1  UNL1        0.0290
     20 C         139.8766  140.9941  164.1136 C.ar    1  UNL1        0.0120
     21 C         139.3175  140.8264  165.4954 C.ar    1  UNL1        0.0290
     22 C         139.2237  139.4594  166.1056 C.ar    1  UNL1        0.1390
     23 CL        138.6646  139.2916  167.4874 Cl      1  UNL1       -0.0613
     24 N         139.6889  138.2601  165.3341 N.ar    1  UNL1       -0.2226
@<TRIPOS>BOND
     1    17    18    1
     2    18    19   ar
     3    19    20   ar
     4    20    16    1
     5    16    15    1
     6    15    14    1
     7    14     1    1
     8     1     8    1
     9     8     9   ar
    10     9    10   ar
    11    10    11   ar
    12    11    12   ar
    13    12    13   ar
    14     1     2    1
    15     2     3    1
    16     3     4    1
    17     4     5    1
    18     5     6    1
    19    20    21   ar
    20    21    22   ar
    21    22    23    1
    22    22    24   ar
    23    24    18   ar
    24     6     1    1
    25    13     8   ar
    26     4     7    1
