@<TRIPOS>MOLECULE
*****
 41 46 0 0 0
SMALL
GASTEIGER

@<TRIPOS>ATOM
      1 C         141.7173  144.4569  159.0146 C.3     1  UNL1        0.0832
      2 C         142.2288  145.6510  158.2645 C.3     1  UNL1        0.0374
      3 C         141.5539  146.0864  156.9977 C.3     1  UNL1        0.0738
      4 N         140.3676  145.3277  156.4809 N.3     1  UNL1       -0.2722
      5 C         139.8561  144.1336  157.2309 C.3     1  UNL1        0.0829
      6 C         140.5310  143.6983  158.4978 C.3     1  UNL1        0.1103
      7 O         140.5961  145.2830  161.6717 O.2     1  UNL1       -0.2684
      8 C         141.8316  144.4345  161.6101 C.2     1  UNL1        0.2669
      9 N         142.3922  144.0215  160.2815 N.am    1  UNL1       -0.3006
     10 H         143.2031  143.4646  160.2410 H       1  UNL1        0.1497
     11 C         142.5064  143.9991  162.8769 C.ar    1  UNL1        0.1761
     12 C         142.0337  142.9156  163.8003 C.ar    1  UNL1        0.0673
     13 C         143.0075  142.8176  164.9369 C.ar    1  UNL1        0.1792
     14 O         144.0822  143.8406  164.7161 O.2     1  UNL1       -0.3532
     15 N         143.7724  144.5708  163.4429 N.ar    1  UNL1       -0.0723
     16 C         142.9219  141.8641  166.0917 C.ar    1  UNL1        0.0648
     17 C         142.9311  142.3863  167.4978 C.ar    1  UNL1        0.0077
     18 C         142.8455  141.4327  168.6525 C.ar    1  UNL1        0.0299
     19 C         142.7505  139.9570  168.4011 C.ar    1  UNL1        0.1424
     20 F         142.6648  139.0035  169.5558 F       1  UNL1       -0.2041
     21 C         142.7412  139.4349  166.9950 C.ar    1  UNL1        0.0593
     22 C         142.8269  140.3884  165.8403 C.ar    1  UNL1        0.1453
     23 F         142.8176  139.8662  164.4342 F       1  UNL1       -0.2040
     24 C         140.0196  142.5042  159.2479 C.2     1  UNL1        0.2252
     25 O         140.9714  141.4334  159.6921 O.2     1  UNL1       -0.2750
     26 N         138.5563  142.3809  159.5537 N.am    1  UNL1       -0.3010
     27 H         137.9315  143.0837  159.2622 H       1  UNL1        0.1497
     28 C         138.0448  141.1869  160.3038 C.3     1  UNL1        0.1089
     29 C         137.5537  139.7952  160.5723 C.3     1  UNL1        0.0274
     30 C         137.9257  140.2032  159.1776 C.3     1  UNL1        0.0274
     31 C         137.9862  141.7558  161.6905 C.ar    1  UNL1        0.1549
     32 N         137.7231  143.2190  161.8903 N.ar    1  UNL1       -0.2276
     33 C         137.6645  143.7880  163.2771 C.ar    1  UNL1        0.1019
     34 C         137.8690  142.8938  164.4638 C.ar    1  UNL1        0.0413
     35 C         138.1322  141.4306  164.2640 C.ar    1  UNL1        0.1019
     36 N         138.1908  140.8616  162.8773 N.ar    1  UNL1       -0.2276
     37 C         139.6927  145.7631  155.2140 C.3     1  UNL1        0.0721
     38 C         139.6417  147.2182  154.8533 C.3     1  UNL1        0.0160
     39 C         140.2705  148.0703  153.7910 C.3     1  UNL1        0.0014
     40 C         139.5695  149.2760  154.3431 C.3     1  UNL1        0.0001
     41 C         138.9406  148.4239  155.4054 C.3     1  UNL1        0.0014
@<TRIPOS>BOND
     1     7     8    2
     2     8     9   am
     3     1     9    1
     4     1     2    1
     5     2     3    1
     6     3     4    1
     7     4    37    1
     8    37    38    1
     9    38    39    1
    10    39    40    1
    11    40    41    1
    12     4     5    1
    13     5     6    1
    14     6    24    1
    15    24    25    2
    16    24    26   am
    17    26    28    1
    18    28    31    1
    19    31    32   ar
    20    32    33   ar
    21    33    34   ar
    22    34    35   ar
    23    35    36   ar
    24    28    29    1
    25    29    30    1
    26     8    11    1
    27    11    12   ar
    28    12    13   ar
    29    13    16    1
    30    16    17   ar
    31    17    18   ar
    32    18    19   ar
    33    19    20    1
    34    19    21   ar
    35    21    22   ar
    36    22    23    1
    37    13    14   ar
    38    14    15   ar
    39     6     1    1
    40    30    28    1
    41    15    11   ar
    42    41    38    1
    43    36    31   ar
    44    22    16   ar
    45     9    10    1
    46    26    27    1
@<TRIPOS>MOLECULE
*****
 41 46 0 0 0
SMALL
GASTEIGER

@<TRIPOS>ATOM
      1 C         142.4194  138.9906  161.2675 C.3     1  UNL1        0.0832
      2 C         142.6871  137.6330  160.6888 C.3     1  UNL1        0.0374
      3 C         142.9541  137.4830  159.2204 C.3     1  UNL1        0.0738
      4 N         142.9532  138.6907  158.3307 N.3     1  UNL1       -0.2722
      5 C         142.6855  140.0483  158.9094 C.3     1  UNL1        0.0829
      6 C         142.4185  140.1983  160.3778 C.3     1  UNL1        0.1103
      7 O         144.7062  139.0657  163.2078 O.2     1  UNL1       -0.2684
      8 C         143.2958  139.1782  163.7061 C.2     1  UNL1        0.2669
      9 N         142.1524  139.1407  162.7359 N.am    1  UNL1       -0.3006
     10 H         141.2267  139.2145  163.0630 H       1  UNL1        0.1497
     11 C         143.0289  139.3282  165.1745 C.ar    1  UNL1        0.1761
     12 C         142.1313  140.3497  165.8076 C.ar    1  UNL1        0.0673
     13 C         142.1604  140.1359  167.2920 C.ar    1  UNL1        0.1792
     14 O         143.0761  138.9823  167.5763 O.2     1  UNL1       -0.3532
     15 N         143.6128  138.4831  166.2676 N.ar    1  UNL1       -0.0723
     16 C         141.4063  140.9353  168.3129 C.ar    1  UNL1        0.0648
     17 C         140.1104  140.4176  168.8631 C.ar    1  UNL1        0.0077
     18 C         139.3563  141.2171  169.8839 C.ar    1  UNL1        0.0299
     19 C         139.8981  142.5342  170.3546 C.ar    1  UNL1        0.1424
     20 F         139.1440  143.3336  171.3755 F       1  UNL1       -0.2041
     21 C         141.1939  143.0519  169.8045 C.ar    1  UNL1        0.0593
     22 C         141.9480  142.2524  168.7836 C.ar    1  UNL1        0.1453
     23 F         143.2439  142.7702  168.2335 F       1  UNL1       -0.2040
     24 C         142.1507  141.5560  160.9566 C.2     1  UNL1        0.2252
     25 O         143.1012  142.1462  161.9558 O.2     1  UNL1       -0.2750
     26 N         140.9324  142.3236  160.5363 N.am    1  UNL1       -0.3010
     27 H         140.3086  141.9362  159.8805 H       1  UNL1        0.1497
     28 C         140.6646  143.6812  161.1150 C.3     1  UNL1        0.1089
     29 C         140.7047  145.1699  161.2945 C.3     1  UNL1        0.0274
     30 C         141.4581  144.5299  160.1662 C.3     1  UNL1        0.0274
     31 C         139.7782  143.3040  162.2647 C.ar    1  UNL1        0.1549
     32 N         140.3287  143.2803  163.6598 N.ar    1  UNL1       -0.2276
     33 C         139.4422  142.9031  164.8097 C.ar    1  UNL1        0.1019
     34 C         138.0053  142.5497  164.5643 C.ar    1  UNL1        0.0413
     35 C         137.4548  142.5734  163.1691 C.ar    1  UNL1        0.1019
     36 N         138.3412  142.9506  162.0193 N.ar    1  UNL1       -0.2276
     37 C         143.2202  138.5406  156.8622 C.3     1  UNL1        0.0721
     38 C         143.1012  137.1941  156.2121 C.3     1  UNL1        0.0160
     39 C         144.0724  136.1952  155.6562 C.3     1  UNL1        0.0014
     40 C         142.9330  135.2899  155.2926 C.3     1  UNL1        0.0001
     41 C         141.9618  136.2888  155.8484 C.3     1  UNL1        0.0014
@<TRIPOS>BOND
     1     7     8    2
     2     8     9   am
     3     1     9    1
     4     1     2    1
     5     2     3    1
     6     3     4    1
     7     4    37    1
     8    37    38    1
     9    38    39    1
    10    39    40    1
    11    40    41    1
    12     4     5    1
    13     5     6    1
    14     6    24    1
    15    24    25    2
    16    24    26   am
    17    26    28    1
    18    28    31    1
    19    31    32   ar
    20    32    33   ar
    21    33    34   ar
    22    34    35   ar
    23    35    36   ar
    24    28    29    1
    25    29    30    1
    26     8    11    1
    27    11    12   ar
    28    12    13   ar
    29    13    16    1
    30    16    17   ar
    31    17    18   ar
    32    18    19   ar
    33    19    20    1
    34    19    21   ar
    35    21    22   ar
    36    22    23    1
    37    13    14   ar
    38    14    15   ar
    39     6     1    1
    40    30    28    1
    41    15    11   ar
    42    41    38    1
    43    36    31   ar
    44    22    16   ar
    45     9    10    1
    46    26    27    1
@<TRIPOS>MOLECULE
*****
 41 46 0 0 0
SMALL
GASTEIGER

@<TRIPOS>ATOM
      1 C         139.4185  140.2283  164.6004 C.3     1  UNL1        0.0832
      2 C         138.4362  139.4400  165.4150 C.3     1  UNL1        0.0374
      3 C         138.5345  139.4371  166.9117 C.3     1  UNL1        0.0738
      4 N         139.6152  140.2225  167.5939 N.3     1  UNL1       -0.2722
      5 C         140.5975  141.0108  166.7793 C.3     1  UNL1        0.0829
      6 C         140.4992  141.0137  165.2826 C.3     1  UNL1        0.1103
      7 O         137.2401  141.7817  163.2433 O.2     1  UNL1       -0.2684
      8 C         138.2310  141.0080  162.4250 C.2     1  UNL1        0.2669
      9 N         139.3202  140.2313  163.1036 N.am    1  UNL1       -0.3006
     10 H         139.9706  139.7235  162.5665 H       1  UNL1        0.1497
     11 C         138.1327  141.0110  160.9283 C.ar    1  UNL1        0.1761
     12 C         138.5635  142.1232  160.0186 C.ar    1  UNL1        0.0673
     13 C         138.2833  141.7019  158.6065 C.ar    1  UNL1        0.1792
     14 O         137.6795  140.3292  158.6435 O.2     1  UNL1       -0.3532
     15 N         137.5864  139.9023  160.0784 N.ar    1  UNL1       -0.0723
     16 C         138.5587  142.5110  157.3739 C.ar    1  UNL1        0.0648
     17 C         139.8703  143.2227  157.2214 C.ar    1  UNL1        0.0077
     18 C         140.1457  144.0319  155.9888 C.ar    1  UNL1        0.0299
     19 C         139.1095  144.1294  154.9087 C.ar    1  UNL1        0.1424
     20 F         139.3849  144.9385  153.6760 F       1  UNL1       -0.2041
     21 C         137.7980  143.4177  155.0611 C.ar    1  UNL1        0.0593
     22 C         137.5226  142.6085  156.2937 C.ar    1  UNL1        0.1453
     23 F         136.2110  141.8968  156.4462 F       1  UNL1       -0.2040
     24 C         141.4815  141.8021  164.4679 C.2     1  UNL1        0.2252
     25 O         142.2256  141.1418  163.3453 O.2     1  UNL1       -0.2750
     26 N         141.7197  143.2506  164.7760 N.am    1  UNL1       -0.3010
     27 H         141.2313  143.6840  165.5128 H       1  UNL1        0.1497
     28 C         142.7020  144.0390  163.9614 C.3     1  UNL1        0.1089
     29 C         143.9988  144.6527  163.5236 C.3     1  UNL1        0.0274
     30 C         143.9487  143.8100  164.7636 C.3     1  UNL1        0.0274
     31 C         141.7966  144.5417  162.8764 C.ar    1  UNL1        0.1549
     32 N         142.2212  144.4461  161.4409 N.ar    1  UNL1       -0.2276
     33 C         141.3157  144.9488  160.3557 C.ar    1  UNL1        0.1019
     34 C         139.9857  145.5471  160.7061 C.ar    1  UNL1        0.0413
     35 C         139.5610  145.6427  162.1416 C.ar    1  UNL1        0.1019
     36 N         140.4664  145.1400  163.2267 N.ar    1  UNL1       -0.2276
     37 C         139.7134  140.2195  169.0907 C.3     1  UNL1        0.0721
     38 C         141.0565  140.1400  169.7540 C.3     1  UNL1        0.0160
     39 C         141.7669  140.9346  170.8093 C.3     1  UNL1        0.0014
     40 C         142.9558  140.0275  170.6920 C.3     1  UNL1        0.0001
     41 C         142.2453  139.2329  169.6366 C.3     1  UNL1        0.0014
@<TRIPOS>BOND
     1     7     8    2
     2     8     9   am
     3     1     9    1
     4     1     2    1
     5     2     3    1
     6     3     4    1
     7     4    37    1
     8    37    38    1
     9    38    39    1
    10    39    40    1
    11    40    41    1
    12     4     5    1
    13     5     6    1
    14     6    24    1
    15    24    25    2
    16    24    26   am
    17    26    28    1
    18    28    31    1
    19    31    32   ar
    20    32    33   ar
    21    33    34   ar
    22    34    35   ar
    23    35    36   ar
    24    28    29    1
    25    29    30    1
    26     8    11    1
    27    11    12   ar
    28    12    13   ar
    29    13    16    1
    30    16    17   ar
    31    17    18   ar
    32    18    19   ar
    33    19    20    1
    34    19    21   ar
    35    21    22   ar
    36    22    23    1
    37    13    14   ar
    38    14    15   ar
    39     6     1    1
    40    30    28    1
    41    15    11   ar
    42    41    38    1
    43    36    31   ar
    44    22    16   ar
    45     9    10    1
    46    26    27    1
@<TRIPOS>MOLECULE
*****
 41 46 0 0 0
SMALL
GASTEIGER

@<TRIPOS>ATOM
      1 C         142.4871  138.9969  161.0487 C.3     1  UNL1        0.0832
      2 C         143.0844  137.7036  160.5794 C.3     1  UNL1        0.0374
      3 C         142.9826  137.3109  159.1353 C.3     1  UNL1        0.0738
      4 N         142.2835  138.2115  158.1606 N.3     1  UNL1       -0.2722
      5 C         141.6862  139.5049  158.6300 C.3     1  UNL1        0.0829
      6 C         141.7880  139.8976  160.0741 C.3     1  UNL1        0.1103
      7 O         141.2531  137.2650  163.1648 O.2     1  UNL1       -0.2684
      8 C         141.9719  138.5237  163.5509 C.2     1  UNL1        0.2669
      9 N         142.5889  139.3897  162.4929 N.am    1  UNL1       -0.3006
     10 H         143.0606  140.2158  162.7463 H       1  UNL1        0.1497
     11 C         142.0736  138.9164  164.9950 C.ar    1  UNL1        0.1761
     12 C         141.1830  139.8896  165.7089 C.ar    1  UNL1        0.0673
     13 C         141.6428  139.9795  167.1339 C.ar    1  UNL1        0.1792
     14 O         142.8177  139.0619  167.3006 O.2     1  UNL1       -0.3532
     15 N         143.0839  138.4049  165.9787 N.ar    1  UNL1       -0.0723
     16 C         141.0345  140.8365  168.2042 C.ar    1  UNL1        0.0648
     17 C         139.8184  140.3628  168.9435 C.ar    1  UNL1        0.0077
     18 C         139.2102  141.2198  170.0138 C.ar    1  UNL1        0.0299
     19 C         139.8181  142.5505  170.3448 C.ar    1  UNL1        0.1424
     20 F         139.2098  143.4075  171.4151 F       1  UNL1       -0.2041
     21 C         141.0341  143.0242  169.6054 C.ar    1  UNL1        0.0593
     22 C         141.6423  142.1672  168.5351 C.ar    1  UNL1        0.1453
     23 F         142.8585  142.6410  167.7958 F       1  UNL1       -0.2040
     24 C         141.1906  141.1910  160.5435 C.2     1  UNL1        0.2252
     25 O         140.1363  141.1867  161.6104 O.2     1  UNL1       -0.2750
     26 N         141.6477  142.4888  159.9460 N.am    1  UNL1       -0.3010
     27 H         142.3397  142.4916  159.2457 H       1  UNL1        0.1497
     28 C         141.0504  143.7821  160.4154 C.3     1  UNL1        0.1089
     29 C         140.1311  144.9650  160.4905 C.3     1  UNL1        0.0274
     30 C         139.9157  143.9130  159.4431 C.3     1  UNL1        0.0274
     31 C         141.9776  144.1004  161.5506 C.ar    1  UNL1        0.1549
     32 N         143.4376  143.7745  161.4405 N.ar    1  UNL1       -0.2276
     33 C         144.3650  144.0928  162.5758 C.ar    1  UNL1        0.1019
     34 C         143.8322  144.7370  163.8212 C.ar    1  UNL1        0.0413
     35 C         142.3722  145.0629  163.9314 C.ar    1  UNL1        0.1019
     36 N         141.4448  144.7446  162.7961 N.ar    1  UNL1       -0.2276
     37 C         142.1817  137.8188  156.7165 C.3     1  UNL1        0.0721
     38 C         142.7896  136.5312  156.2448 C.3     1  UNL1        0.0160
     39 C         142.3549  135.0957  156.2303 C.3     1  UNL1        0.0014
     40 C         143.6494  134.7103  155.5777 C.3     1  UNL1        0.0001
     41 C         144.0841  136.1458  155.5922 C.3     1  UNL1        0.0014
@<TRIPOS>BOND
     1     7     8    2
     2     8     9   am
     3     1     9    1
     4     1     2    1
     5     2     3    1
     6     3     4    1
     7     4    37    1
     8    37    38    1
     9    38    39    1
    10    39    40    1
    11    40    41    1
    12     4     5    1
    13     5     6    1
    14     6    24    1
    15    24    25    2
    16    24    26   am
    17    26    28    1
    18    28    31    1
    19    31    32   ar
    20    32    33   ar
    21    33    34   ar
    22    34    35   ar
    23    35    36   ar
    24    28    29    1
    25    29    30    1
    26     8    11    1
    27    11    12   ar
    28    12    13   ar
    29    13    16    1
    30    16    17   ar
    31    17    18   ar
    32    18    19   ar
    33    19    20    1
    34    19    21   ar
    35    21    22   ar
    36    22    23    1
    37    13    14   ar
    38    14    15   ar
    39     6     1    1
    40    30    28    1
    41    15    11   ar
    42    41    38    1
    43    36    31   ar
    44    22    16   ar
    45     9    10    1
    46    26    27    1
@<TRIPOS>MOLECULE
*****
 41 46 0 0 0
SMALL
GASTEIGER

@<TRIPOS>ATOM
      1 C         142.1380  141.8716  159.8862 C.3     1  UNL1        0.0832
      2 C         141.9500  143.2125  159.2407 C.3     1  UNL1        0.0374
      3 C         141.2742  144.3194  159.9943 C.3     1  UNL1        0.0738
      4 N         140.7863  144.0854  161.3933 N.3     1  UNL1       -0.2722
      5 C         140.9743  142.7445  162.0387 C.3     1  UNL1        0.0829
      6 C         141.6501  141.6376  161.2852 C.3     1  UNL1        0.1103
      7 O         140.5335  140.0807  158.0922 O.2     1  UNL1       -0.2684
      8 C         142.0116  139.8691  158.2356 C.2     1  UNL1        0.2669
      9 N         142.8139  140.7646  159.1326 N.am    1  UNL1       -0.3006
     10 H         143.7840  140.6258  159.2267 H       1  UNL1        0.1497
     11 C         142.6874  138.7622  157.4820 C.ar    1  UNL1        0.1761
     12 C         142.2222  137.3384  157.4012 C.ar    1  UNL1        0.0673
     13 C         143.1944  136.5809  156.5462 C.ar    1  UNL1        0.1792
     14 O         144.2605  137.5365  156.0986 O.2     1  UNL1       -0.3532
     15 N         143.9471  138.8846  156.6770 N.ar    1  UNL1       -0.0723
     16 C         143.1145  135.1237  156.1997 C.ar    1  UNL1        0.0648
     17 C         142.8417  134.7028  154.7860 C.ar    1  UNL1        0.0077
     18 C         142.7618  133.2456  154.4394 C.ar    1  UNL1        0.0299
     19 C         142.9548  132.2093  155.5066 C.ar    1  UNL1        0.1424
     20 F         142.8749  130.7520  155.1600 F       1  UNL1       -0.2041
     21 C         143.2276  132.6301  156.9202 C.ar    1  UNL1        0.0593
     22 C         143.3075  134.0873  157.2667 C.ar    1  UNL1        0.1453
     23 F         143.5803  134.5082  158.6804 F       1  UNL1       -0.2040
     24 C         141.8382  140.2967  161.9306 C.2     1  UNL1        0.2252
     25 O         143.0669  139.4883  161.6363 O.2     1  UNL1       -0.2750
     26 N         140.7974  139.7641  162.8704 N.am    1  UNL1       -0.3010
     27 H         139.9909  140.2947  163.0635 H       1  UNL1        0.1497
     28 C         140.9854  138.4232  163.5158 C.3     1  UNL1        0.1089
     29 C         140.9776  136.9348  163.7016 C.3     1  UNL1        0.0274
     30 C         140.4869  137.5328  162.4163 C.3     1  UNL1        0.0274
     31 C         141.5490  138.8479  164.8393 C.ar    1  UNL1        0.1549
     32 N         142.7899  138.1939  165.3707 N.ar    1  UNL1       -0.2276
     33 C         143.3537  138.6185  166.6944 C.ar    1  UNL1        0.1019
     34 C         142.6764  139.6973  167.4866 C.ar    1  UNL1        0.0413
     35 C         141.4355  140.3513  166.9552 C.ar    1  UNL1        0.1019
     36 N         140.8718  139.9267  165.6316 N.ar    1  UNL1       -0.2276
     37 C         140.1104  145.1924  162.1469 C.3     1  UNL1        0.0721
     38 C         139.1711  144.8700  163.2710 C.3     1  UNL1        0.0160
     39 C         139.2473  144.9320  164.7677 C.3     1  UNL1        0.0014
     40 C         137.8426  144.4140  164.8607 C.3     1  UNL1        0.0001
     41 C         137.7664  144.3520  163.3639 C.3     1  UNL1        0.0014
@<TRIPOS>BOND
     1     7     8    2
     2     8     9   am
     3     1     9    1
     4     1     2    1
     5     2     3    1
     6     3     4    1
     7     4    37    1
     8    37    38    1
     9    38    39    1
    10    39    40    1
    11    40    41    1
    12     4     5    1
    13     5     6    1
    14     6    24    1
    15    24    25    2
    16    24    26   am
    17    26    28    1
    18    28    31    1
    19    31    32   ar
    20    32    33   ar
    21    33    34   ar
    22    34    35   ar
    23    35    36   ar
    24    28    29    1
    25    29    30    1
    26     8    11    1
    27    11    12   ar
    28    12    13   ar
    29    13    16    1
    30    16    17   ar
    31    17    18   ar
    32    18    19   ar
    33    19    20    1
    34    19    21   ar
    35    21    22   ar
    36    22    23    1
    37    13    14   ar
    38    14    15   ar
    39     6     1    1
    40    30    28    1
    41    15    11   ar
    42    41    38    1
    43    36    31   ar
    44    22    16   ar
    45     9    10    1
    46    26    27    1
@<TRIPOS>MOLECULE
*****
 41 46 0 0 0
SMALL
GASTEIGER

@<TRIPOS>ATOM
      1 C         142.2712  139.2306  164.6576 C.3     1  UNL1        0.0832
      2 C         143.0884  138.2803  165.4816 C.3     1  UNL1        0.0374
      3 C         143.2084  138.4841  166.9628 C.3     1  UNL1        0.0738
      4 N         142.5112  139.6383  167.6200 N.3     1  UNL1       -0.2722
      5 C         141.6940  140.5886  166.7960 C.3     1  UNL1        0.0829
      6 C         141.5740  140.3848  165.3148 C.3     1  UNL1        0.1103
      7 O         144.5476  139.9762  162.8516 O.2     1  UNL1       -0.2684
      8 C         143.2894  139.3996  162.2733 C.2     1  UNL1        0.2669
      9 N         142.1511  139.0268  163.1763 N.am    1  UNL1       -0.3006
     10 H         141.3253  138.6484  162.7968 H       1  UNL1        0.1497
     11 C         143.1694  139.1959  160.7921 C.ar    1  UNL1        0.1761
     12 C         141.9545  138.6989  160.0660 C.ar    1  UNL1        0.0673
     13 C         142.2774  138.6492  158.6021 C.ar    1  UNL1        0.1792
     14 O         143.6919  139.1155  158.4234 O.2     1  UNL1       -0.3532
     15 N         144.2431  139.4533  159.7769 N.ar    1  UNL1       -0.0723
     16 C         141.3490  138.2103  157.5088 C.ar    1  UNL1        0.0648
     17 C         140.1671  139.0584  157.1429 C.ar    1  UNL1        0.0077
     18 C         139.2387  138.6195  156.0496 C.ar    1  UNL1        0.0299
     19 C         139.4921  137.3325  155.3222 C.ar    1  UNL1        0.1424
     20 F         138.5636  136.8936  154.2289 F       1  UNL1       -0.2041
     21 C         140.6739  136.4844  155.6880 C.ar    1  UNL1        0.0593
     22 C         141.6023  136.9233  156.7813 C.ar    1  UNL1        0.1453
     23 F         142.7842  136.0751  157.1471 F       1  UNL1       -0.2040
     24 C         140.7568  141.3351  164.4907 C.2     1  UNL1        0.2252
     25 O         141.4340  142.2748  163.5377 O.2     1  UNL1       -0.2750
     26 N         139.2624  141.3457  164.6197 N.am    1  UNL1       -0.3010
     27 H         138.8179  140.7289  165.2453 H       1  UNL1        0.1497
     28 C         138.4452  142.2960  163.7957 C.3     1  UNL1        0.1089
     29 C         137.6861  143.5294  163.4051 C.3     1  UNL1        0.0274
     30 C         138.3289  143.4412  164.7576 C.3     1  UNL1        0.0274
     31 C         138.2776  141.4809  162.5478 C.ar    1  UNL1        0.1549
     32 N         138.5517  142.0963  161.2076 N.ar    1  UNL1       -0.2276
     33 C         138.3841  141.2812  159.9595 C.ar    1  UNL1        0.1019
     34 C         137.9425  139.8507  160.0517 C.ar    1  UNL1        0.0413
     35 C         137.6684  139.2353  161.3919 C.ar    1  UNL1        0.1019
     36 N         137.8359  140.0503  162.6399 N.ar    1  UNL1       -0.2276
     37 C         142.6313  139.8421  169.1013 C.3     1  UNL1        0.0721
     38 C         142.7288  141.2299  169.6620 C.3     1  UNL1        0.0160
     39 C         141.8506  142.0911  170.5205 C.3     1  UNL1        0.0014
     40 C         142.8667  143.1926  170.4549 C.3     1  UNL1        0.0001
     41 C         143.7449  142.3314  169.5964 C.3     1  UNL1        0.0014
@<TRIPOS>BOND
     1     7     8    2
     2     8     9   am
     3     1     9    1
     4     1     2    1
     5     2     3    1
     6     3     4    1
     7     4    37    1
     8    37    38    1
     9    38    39    1
    10    39    40    1
    11    40    41    1
    12     4     5    1
    13     5     6    1
    14     6    24    1
    15    24    25    2
    16    24    26   am
    17    26    28    1
    18    28    31    1
    19    31    32   ar
    20    32    33   ar
    21    33    34   ar
    22    34    35   ar
    23    35    36   ar
    24    28    29    1
    25    29    30    1
    26     8    11    1
    27    11    12   ar
    28    12    13   ar
    29    13    16    1
    30    16    17   ar
    31    17    18   ar
    32    18    19   ar
    33    19    20    1
    34    19    21   ar
    35    21    22   ar
    36    22    23    1
    37    13    14   ar
    38    14    15   ar
    39     6     1    1
    40    30    28    1
    41    15    11   ar
    42    41    38    1
    43    36    31   ar
    44    22    16   ar
    45     9    10    1
    46    26    27    1
@<TRIPOS>MOLECULE
*****
 41 46 0 0 0
SMALL
GASTEIGER

@<TRIPOS>ATOM
      1 C         140.0520  141.2404  158.3669 C.3     1  UNL1        0.0832
      2 C         140.5205  139.9923  157.6793 C.3     1  UNL1        0.0374
      3 C         141.1623  138.8940  158.4742 C.3     1  UNL1        0.0738
      4 N         141.3355  139.0438  159.9566 N.3     1  UNL1       -0.2722
      5 C         140.8670  140.2918  160.6442 C.3     1  UNL1        0.0829
      6 C         140.2253  141.3901  159.8493 C.3     1  UNL1        0.1103
      7 O         141.5443  143.7927  157.8583 O.2     1  UNL1       -0.2684
      8 C         140.1564  143.6150  157.3178 C.2     1  UNL1        0.2669
      9 N         139.4102  142.3388  157.5721 N.am    1  UNL1       -0.3006
     10 H         138.4993  142.2221  157.2173 H       1  UNL1        0.1497
     11 C         139.5147  144.7133  156.5230 C.ar    1  UNL1        0.1761
     12 C         139.9274  146.1555  156.5187 C.ar    1  UNL1        0.0673
     13 C         139.0154  146.8959  155.5860 C.ar    1  UNL1        0.1792
     14 O         138.0390  145.9113  155.0138 O.2     1  UNL1       -0.3532
     15 N         138.3476  144.5625  155.5929 N.ar    1  UNL1       -0.0723
     16 C         139.0701  148.3632  155.2793 C.ar    1  UNL1        0.0648
     17 C         139.5777  148.8327  153.9482 C.ar    1  UNL1        0.0077
     18 C         139.6324  150.3000  153.6415 C.ar    1  UNL1        0.0299
     19 C         139.1796  151.2977  154.6660 C.ar    1  UNL1        0.1424
     20 F         139.2343  152.7650  154.3593 F       1  UNL1       -0.2041
     21 C         138.6721  150.8282  155.9970 C.ar    1  UNL1        0.0593
     22 C         138.6173  149.3609  156.3037 C.ar    1  UNL1        0.1453
     23 F         138.1098  148.8913  157.6348 F       1  UNL1       -0.2040
     24 C         139.7567  142.6383  160.5369 C.2     1  UNL1        0.2252
     25 O         138.2885  142.9010  160.6958 O.2     1  UNL1       -0.2750
     26 N         140.7565  143.6237  161.0656 N.am    1  UNL1       -0.3010
     27 H         141.7201  143.4513  160.9613 H       1  UNL1        0.1497
     28 C         140.2880  144.8718  161.7531 C.3     1  UNL1        0.1089
     29 C         139.8489  146.2925  161.9500 C.3     1  UNL1        0.0274
     30 C         140.2098  145.8022  160.5791 C.3     1  UNL1        0.0274
     31 C         140.2035  144.3749  163.1659 C.ar    1  UNL1        0.1549
     32 N         141.2494  143.4392  163.6956 N.ar    1  UNL1       -0.2276
     33 C         141.1649  142.9422  165.1084 C.ar    1  UNL1        0.1019
     34 C         140.0346  143.3810  165.9914 C.ar    1  UNL1        0.0413
     35 C         138.9888  144.3168  165.4617 C.ar    1  UNL1        0.1019
     36 N         139.0732  144.8137  164.0489 N.ar    1  UNL1       -0.2276
     37 C         141.9773  137.9453  160.7514 C.3     1  UNL1        0.0721
     38 C         141.8070  137.8995  162.2410 C.3     1  UNL1        0.0160
     39 C         142.5745  138.4350  163.4133 C.3     1  UNL1        0.0014
     40 C         141.5662  137.8347  164.3476 C.3     1  UNL1        0.0001
     41 C         140.7987  137.2992  163.1754 C.3     1  UNL1        0.0014
@<TRIPOS>BOND
     1     7     8    2
     2     8     9   am
     3     1     9    1
     4     1     2    1
     5     2     3    1
     6     3     4    1
     7     4    37    1
     8    37    38    1
     9    38    39    1
    10    39    40    1
    11    40    41    1
    12     4     5    1
    13     5     6    1
    14     6    24    1
    15    24    25    2
    16    24    26   am
    17    26    28    1
    18    28    31    1
    19    31    32   ar
    20    32    33   ar
    21    33    34   ar
    22    34    35   ar
    23    35    36   ar
    24    28    29    1
    25    29    30    1
    26     8    11    1
    27    11    12   ar
    28    12    13   ar
    29    13    16    1
    30    16    17   ar
    31    17    18   ar
    32    18    19   ar
    33    19    20    1
    34    19    21   ar
    35    21    22   ar
    36    22    23    1
    37    13    14   ar
    38    14    15   ar
    39     6     1    1
    40    30    28    1
    41    15    11   ar
    42    41    38    1
    43    36    31   ar
    44    22    16   ar
    45     9    10    1
    46    26    27    1
@<TRIPOS>MOLECULE
*****
 41 46 0 0 0
SMALL
GASTEIGER

@<TRIPOS>ATOM
      1 C         140.7061  137.7947  157.3818 C.3     1  UNL1        0.0832
      2 C         140.0938  137.2173  156.1402 C.3     1  UNL1        0.0374
      3 C         140.8600  136.2234  155.3186 C.3     1  UNL1        0.0738
      4 N         142.2384  135.8068  155.7387 N.3     1  UNL1       -0.2722
      5 C         142.8506  136.3841  156.9804 C.3     1  UNL1        0.0829
      6 C         142.0844  137.3780  157.8020 C.3     1  UNL1        0.1103
      7 O         141.3501  140.7180  157.1842 O.2     1  UNL1       -0.2684
      8 C         140.2619  140.2503  158.1046 C.2     1  UNL1        0.2669
      9 N         139.9399  138.7887  158.2035 N.am    1  UNL1       -0.3006
     10 H         139.2257  138.4817  158.8076 H       1  UNL1        0.1497
     11 C         139.4958  141.2443  158.9262 C.ar    1  UNL1        0.1761
     12 C         139.7834  141.6199  160.3497 C.ar    1  UNL1        0.0673
     13 C         138.7729  142.6450  160.7718 C.ar    1  UNL1        0.1792
     14 O         137.8608  142.9029  159.6092 O.2     1  UNL1       -0.3532
     15 N         138.3076  142.0373  158.4686 N.ar    1  UNL1       -0.0723
     16 C         138.6892  143.2976  162.1198 C.ar    1  UNL1        0.0648
     17 C         139.5485  144.4868  162.4321 C.ar    1  UNL1        0.0077
     18 C         139.4648  145.1393  163.7801 C.ar    1  UNL1        0.0299
     19 C         138.5218  144.6027  164.8158 C.ar    1  UNL1        0.1424
     20 F         138.4381  145.2552  166.1638 F       1  UNL1       -0.2041
     21 C         137.6626  143.4135  164.5036 C.ar    1  UNL1        0.0593
     22 C         137.7463  142.7610  163.1556 C.ar    1  UNL1        0.1453
     23 F         136.8870  141.5718  162.8433 F       1  UNL1       -0.2040
     24 C         142.6966  137.9554  159.0437 C.2     1  UNL1        0.2252
     25 O         143.7051  139.0608  158.9386 O.2     1  UNL1       -0.2750
     26 N         142.3003  137.4274  160.3906 N.am    1  UNL1       -0.3010
     27 H         141.6385  136.7019  160.4596 H       1  UNL1        0.1497
     28 C         142.9125  138.0047  161.6323 C.3     1  UNL1        0.1089
     29 C         143.9553  138.4331  162.6217 C.3     1  UNL1        0.0274
     30 C         144.3653  137.7763  161.3369 C.3     1  UNL1        0.0274
     31 C         141.6724  138.4336  162.3589 C.ar    1  UNL1        0.1549
     32 N         141.6939  139.6628  163.2184 N.ar    1  UNL1       -0.2276
     33 C         140.4537  140.0918  163.9451 C.ar    1  UNL1        0.1019
     34 C         139.1920  139.2915  163.8123 C.ar    1  UNL1        0.0413
     35 C         139.1705  138.0623  162.9529 C.ar    1  UNL1        0.1019
     36 N         140.4106  137.6333  162.2262 N.ar    1  UNL1       -0.2276
     37 C         143.0046  134.8128  154.9171 C.3     1  UNL1        0.0721
     38 C         143.0846  133.3804  155.3552 C.3     1  UNL1        0.0160
     39 C         142.8167  132.6464  156.6356 C.3     1  UNL1        0.0014
     40 C         143.1977  131.3548  155.9749 C.3     1  UNL1        0.0001
     41 C         143.4656  132.0888  154.6945 C.3     1  UNL1        0.0014
@<TRIPOS>BOND
     1     7     8    2
     2     8     9   am
     3     1     9    1
     4     1     2    1
     5     2     3    1
     6     3     4    1
     7     4    37    1
     8    37    38    1
     9    38    39    1
    10    39    40    1
    11    40    41    1
    12     4     5    1
    13     5     6    1
    14     6    24    1
    15    24    25    2
    16    24    26   am
    17    26    28    1
    18    28    31    1
    19    31    32   ar
    20    32    33   ar
    21    33    34   ar
    22    34    35   ar
    23    35    36   ar
    24    28    29    1
    25    29    30    1
    26     8    11    1
    27    11    12   ar
    28    12    13   ar
    29    13    16    1
    30    16    17   ar
    31    17    18   ar
    32    18    19   ar
    33    19    20    1
    34    19    21   ar
    35    21    22   ar
    36    22    23    1
    37    13    14   ar
    38    14    15   ar
    39     6     1    1
    40    30    28    1
    41    15    11   ar
    42    41    38    1
    43    36    31   ar
    44    22    16   ar
    45     9    10    1
    46    26    27    1
@<TRIPOS>MOLECULE
*****
 41 46 0 0 0
SMALL
GASTEIGER

@<TRIPOS>ATOM
      1 C         143.4001  141.9833  161.2015 C.3     1  UNL1        0.0832
      2 C         144.7666  142.4063  160.7504 C.3     1  UNL1        0.0374
      3 C         145.0681  142.5305  159.2863 C.3     1  UNL1        0.0738
      4 N         144.0029  142.2318  158.2733 N.3     1  UNL1       -0.2722
      5 C         142.6364  141.8088  158.7244 C.3     1  UNL1        0.0829
      6 C         142.3350  141.6845  160.1885 C.3     1  UNL1        0.1103
      7 O         143.5988  139.3120  162.5524 O.2     1  UNL1       -0.2684
      8 C         143.1979  140.5234  163.3411 C.2     1  UNL1        0.2669
      9 N         143.0986  141.8590  162.6657 N.am    1  UNL1       -0.3006
     10 H         142.8355  142.6541  163.1833 H       1  UNL1        0.1497
     11 C         142.8965  140.3991  164.8052 C.ar    1  UNL1        0.1761
     12 C         142.0443  141.3331  165.6124 C.ar    1  UNL1        0.0673
     13 C         142.0154  140.8303  167.0252 C.ar    1  UNL1        0.1792
     14 O         142.8497  139.5854  167.0913 O.2     1  UNL1       -0.3532
     15 N         143.3942  139.3190  165.7192 N.ar    1  UNL1       -0.0723
     16 C         141.2812  141.4614  168.1709 C.ar    1  UNL1        0.0648
     17 C         141.7549  142.7671  168.7372 C.ar    1  UNL1        0.0077
     18 C         141.0206  143.3982  169.8829 C.ar    1  UNL1        0.0299
     19 C         139.8127  142.7236  170.4622 C.ar    1  UNL1        0.1424
     20 F         139.0784  143.3547  171.6079 F       1  UNL1       -0.2041
     21 C         139.3390  141.4179  169.8959 C.ar    1  UNL1        0.0593
     22 C         140.0732  140.7868  168.7503 C.ar    1  UNL1        0.1453
     23 F         139.5995  139.4811  168.1840 F       1  UNL1       -0.2040
     24 C         140.9683  141.2615  160.6396 C.2     1  UNL1        0.2252
     25 O         140.0830  142.2329  161.3625 O.2     1  UNL1       -0.2750
     26 N         140.4871  139.8670  160.3679 N.am    1  UNL1       -0.3010
     27 H         141.0682  139.2294  159.8934 H       1  UNL1        0.1497
     28 C         139.1205  139.4440  160.8190 C.3     1  UNL1        0.1089
     29 C         137.6361  139.2288  160.8072 C.3     1  UNL1        0.0274
     30 C         138.3065  139.8956  159.6428 C.3     1  UNL1        0.0274
     31 C         139.4599  138.8454  162.1518 C.ar    1  UNL1        0.1549
     32 N         138.7500  139.3143  163.3872 N.ar    1  UNL1       -0.2276
     33 C         139.0894  138.7158  164.7202 C.ar    1  UNL1        0.1019
     34 C         140.1386  137.6483  164.8176 C.ar    1  UNL1        0.0413
     35 C         140.8484  137.1793  163.5822 C.ar    1  UNL1        0.1019
     36 N         140.5092  137.7779  162.2493 N.ar    1  UNL1       -0.2276
     37 C         144.3044  142.3560  156.8091 C.3     1  UNL1        0.0721
     38 C         145.6910  142.0881  156.3035 C.3     1  UNL1        0.0160
     39 C         146.3031  141.0924  155.3633 C.3     1  UNL1        0.0014
     40 C         147.6518  141.7091  155.5884 C.3     1  UNL1        0.0001
     41 C         147.0397  142.7048  156.5286 C.3     1  UNL1        0.0014
@<TRIPOS>BOND
     1     7     8    2
     2     8     9   am
     3     1     9    1
     4     1     2    1
     5     2     3    1
     6     3     4    1
     7     4    37    1
     8    37    38    1
     9    38    39    1
    10    39    40    1
    11    40    41    1
    12     4     5    1
    13     5     6    1
    14     6    24    1
    15    24    25    2
    16    24    26   am
    17    26    28    1
    18    28    31    1
    19    31    32   ar
    20    32    33   ar
    21    33    34   ar
    22    34    35   ar
    23    35    36   ar
    24    28    29    1
    25    29    30    1
    26     8    11    1
    27    11    12   ar
    28    12    13   ar
    29    13    16    1
    30    16    17   ar
    31    17    18   ar
    32    18    19   ar
    33    19    20    1
    34    19    21   ar
    35    21    22   ar
    36    22    23    1
    37    13    14   ar
    38    14    15   ar
    39     6     1    1
    40    30    28    1
    41    15    11   ar
    42    41    38    1
    43    36    31   ar
    44    22    16   ar
    45     9    10    1
    46    26    27    1
