@<TRIPOS>MOLECULE
*****
 32 33 0 0 0
SMALL
GASTEIGER

@<TRIPOS>ATOM
      1 S         143.2330  141.7551  164.5421 S.O2    1  UNL1        0.0141
      2 O         142.7663  140.6214  163.6780 O.2     1  UNL1       -0.1683
      3 O         143.6997  142.8889  165.4062 O.2     1  UNL1       -0.1683
      4 C         141.3148  141.9073  166.2877 C.2     1  UNL1        0.0257
      5 C         142.4875  141.1743  165.7069 C.2     1  UNL1        0.1232
      6 C         139.0784  140.1646  169.7822 C.ar    1  UNL1        0.1448
      7 C         140.1647  141.1725  170.0143 C.ar    1  UNL1        0.0740
      8 C         140.9102  141.7534  168.8494 C.ar    1  UNL1        0.1446
      9 C         140.5693  141.3264  167.4525 C.ar    1  UNL1        0.0694
     10 C         139.4830  140.3184  167.2205 C.ar    1  UNL1        0.1446
     11 C         138.7375  139.7375  168.3853 C.ar    1  UNL1        0.0740
     12 C         136.9281  139.0895  170.7674 C.3     1  UNL1        0.2525
     13 O         138.3329  139.5837  170.9470 O.3     1  UNL1       -0.4712
     14 O         141.9966  142.7614  169.0816 O.3     1  UNL1       -0.4712
     15 C         143.4063  142.3047  169.3138 C.3     1  UNL1        0.2525
     16 O         139.1421  139.8913  165.8235 O.3     1  UNL1       -0.4712
     17 C         139.0856  138.4328  165.4779 C.3     1  UNL1        0.2525
     18 C         143.9785  142.3360  163.3772 C.3     1  UNL1        0.1839
     19 C         143.2329  143.0583  162.2945 C.ar    1  UNL1        0.0224
     20 C         143.7517  143.0415  160.8871 C.ar    1  UNL1        0.0996
     21 N         143.0061  143.7637  159.8043 N.ar    1  UNL1       -0.2093
     22 C         141.7417  144.5028  160.1289 C.ar    1  UNL1        0.2400
     23 C         141.2230  144.5195  161.5362 C.ar    1  UNL1        0.1172
     24 C         141.9686  143.7973  162.6190 C.ar    1  UNL1        0.0196
     25 O         140.9962  145.2250  159.0461 O.3     1  UNL1       -0.4553
     26 C         141.7427  145.8142  157.8861 C.3     1  UNL1        0.2543
     27 N         139.9587  145.2585  161.8608 N.pl3   1  UNL1       -0.2142
     28 H         139.8686  146.2090  161.6206 H       1  UNL1        0.1735
     29 S         138.8316  144.5494  162.5513 S.O2    1  UNL1        0.0559
     30 C         137.7045  143.8402  163.2417 C.3     1  UNL1        0.1996
     31 O         138.4791  143.8592  161.2670 O.2     1  UNL1       -0.1544
     32 O         139.1842  145.2395  163.8355 O.2     1  UNL1       -0.1544
@<TRIPOS>BOND
     1    12    13    1
     2    13     6    1
     3     6     7   ar
     4     7     8   ar
     5     8    14    1
     6    14    15    1
     7     8     9   ar
     8     9     4    1
     9     4     5    2
    10     5     1    1
    11     1     2    2
    12     1     3    2
    13     1    18    1
    14    18    19    1
    15    19    20   ar
    16    20    21   ar
    17    21    22   ar
    18    22    25    1
    19    25    26    1
    20    22    23   ar
    21    23    27    1
    22    27    29    1
    23    29    30    1
    24    29    31    2
    25    29    32    2
    26    23    24   ar
    27     9    10   ar
    28    10    16    1
    29    16    17    1
    30    10    11   ar
    31    11     6   ar
    32    24    19   ar
    33    27    28    1
@<TRIPOS>MOLECULE
*****
 32 33 0 0 0
SMALL
GASTEIGER

@<TRIPOS>ATOM
      1 S         137.9944  140.6979  162.6801 S.O2    1  UNL1        0.0141
      2 O         136.7548  141.5404  162.7414 O.2     1  UNL1       -0.1683
      3 O         139.2339  139.8554  162.6189 O.2     1  UNL1       -0.1683
      4 C         139.5809  140.6671  164.7373 C.2     1  UNL1        0.0257
      5 C         138.2322  140.9416  164.1410 C.2     1  UNL1        0.1232
      6 C         140.2944  141.3983  169.1198 C.ar    1  UNL1        0.1448
      7 C         139.6351  140.1288  168.6688 C.ar    1  UNL1        0.0740
      8 C         139.3972  139.8850  167.2080 C.ar    1  UNL1        0.1446
      9 C         139.8187  140.9109  166.1981 C.ar    1  UNL1        0.0694
     10 C         140.4781  142.1804  166.6490 C.ar    1  UNL1        0.1446
     11 C         140.7159  142.4242  168.1099 C.ar    1  UNL1        0.0740
     12 C         141.8804  142.0971  171.0553 C.3     1  UNL1        0.2525
     13 O         140.5323  141.6421  170.5806 O.3     1  UNL1       -0.4712
     14 O         138.7379  138.6154  166.7571 O.3     1  UNL1       -0.4712
     15 C         137.3511  138.2841  167.2229 C.3     1  UNL1        0.2525
     16 O         140.8996  143.2064  165.6391 O.3     1  UNL1       -0.4712
     17 C         142.2714  143.1451  165.0355 C.3     1  UNL1        0.2525
     18 C         137.7565  140.4542  161.2193 C.3     1  UNL1        0.1839
     19 C         138.4425  141.3086  160.1949 C.ar    1  UNL1        0.0224
     20 C         138.7111  140.7649  158.8230 C.ar    1  UNL1        0.0996
     21 N         139.3970  141.6193  157.7986 N.ar    1  UNL1       -0.2093
     22 C         139.8145  143.0176  158.1462 C.ar    1  UNL1        0.2400
     23 C         139.5459  143.5613  159.5182 C.ar    1  UNL1        0.1172
     24 C         138.8599  142.7068  160.5425 C.ar    1  UNL1        0.0196
     25 O         140.5004  143.8720  157.1219 O.3     1  UNL1       -0.4553
     26 C         139.7028  144.5169  156.0274 C.3     1  UNL1        0.2543
     27 N         139.9633  144.9595  159.8658 N.pl3   1  UNL1       -0.2142
     28 H         139.9544  145.6617  159.1759 H       1  UNL1        0.1735
     29 S         140.3944  145.2876  161.2645 S.O2    1  UNL1        0.0559
     30 C         140.8255  145.6158  162.6632 C.3     1  UNL1        0.1996
     31 O         139.1021  146.0144  161.4922 O.2     1  UNL1       -0.1544
     32 O         141.6867  144.5609  161.0368 O.2     1  UNL1       -0.1544
@<TRIPOS>BOND
     1    12    13    1
     2    13     6    1
     3     6     7   ar
     4     7     8   ar
     5     8    14    1
     6    14    15    1
     7     8     9   ar
     8     9     4    1
     9     4     5    2
    10     5     1    1
    11     1     2    2
    12     1     3    2
    13     1    18    1
    14    18    19    1
    15    19    20   ar
    16    20    21   ar
    17    21    22   ar
    18    22    25    1
    19    25    26    1
    20    22    23   ar
    21    23    27    1
    22    27    29    1
    23    29    30    1
    24    29    31    2
    25    29    32    2
    26    23    24   ar
    27     9    10   ar
    28    10    16    1
    29    16    17    1
    30    10    11   ar
    31    11     6   ar
    32    24    19   ar
    33    27    28    1
@<TRIPOS>MOLECULE
*****
 32 33 0 0 0
SMALL
GASTEIGER

@<TRIPOS>ATOM
      1 S         138.1636  140.7368  162.5160 S.O2    1  UNL1        0.0141
      2 O         136.8564  141.4713  162.5566 O.2     1  UNL1       -0.1683
      3 O         139.4709  140.0023  162.4754 O.2     1  UNL1       -0.1683
      4 C         139.6716  140.6738  164.6307 C.2     1  UNL1        0.0257
      5 C         138.3671  141.0183  163.9752 C.2     1  UNL1        0.1232
      6 C         140.2820  141.5183  169.0084 C.ar    1  UNL1        0.1448
      7 C         140.7253  142.5188  167.9826 C.ar    1  UNL1        0.0740
      8 C         140.5218  142.2374  166.5234 C.ar    1  UNL1        0.1446
      9 C         139.8750  140.9553  166.0899 C.ar    1  UNL1        0.0694
     10 C         139.4317  139.9547  167.1157 C.ar    1  UNL1        0.1446
     11 C         139.6352  140.2362  168.5749 C.ar    1  UNL1        0.0740
     12 C         141.4747  140.9937  171.2561 C.3     1  UNL1        0.2525
     13 O         140.4855  141.7997  170.4676 O.3     1  UNL1       -0.4712
     14 O         140.9652  143.2380  165.4976 O.3     1  UNL1       -0.4712
     15 C         142.3540  143.1703  164.9350 C.3     1  UNL1        0.2525
     16 O         138.7849  138.6726  166.6823 O.3     1  UNL1       -0.4712
     17 C         137.4297  138.3014  167.2071 C.3     1  UNL1        0.2525
     18 C         137.9601  140.4554  161.0567 C.3     1  UNL1        0.1839
     19 C         138.5293  141.3857  160.0270 C.ar    1  UNL1        0.0224
     20 C         138.6577  140.9381  158.6011 C.ar    1  UNL1        0.0996
     21 N         139.2268  141.8684  157.5713 N.ar    1  UNL1       -0.2093
     22 C         139.6676  143.2465  157.9674 C.ar    1  UNL1        0.2400
     23 C         139.5392  143.6941  159.3933 C.ar    1  UNL1        0.1172
     24 C         138.9700  142.7636  160.4231 C.ar    1  UNL1        0.0196
     25 O         140.2368  144.1768  156.9376 O.3     1  UNL1       -0.4553
     26 C         141.7088  144.1666  156.6495 C.3     1  UNL1        0.2543
     27 N         139.9800  145.0720  159.7894 N.pl3   1  UNL1       -0.2142
     28 H         139.9661  145.8021  159.1291 H       1  UNL1        0.1735
     29 S         140.4419  145.3376  161.1916 S.O2    1  UNL1        0.0559
     30 C         140.9038  145.6032  162.5938 C.3     1  UNL1        0.1996
     31 O         141.7905  144.7742  160.8541 O.2     1  UNL1       -0.1544
     32 O         139.0933  145.9010  161.5291 O.2     1  UNL1       -0.1544
@<TRIPOS>BOND
     1    12    13    1
     2    13     6    1
     3     6     7   ar
     4     7     8   ar
     5     8    14    1
     6    14    15    1
     7     8     9   ar
     8     9     4    1
     9     4     5    2
    10     5     1    1
    11     1     2    2
    12     1     3    2
    13     1    18    1
    14    18    19    1
    15    19    20   ar
    16    20    21   ar
    17    21    22   ar
    18    22    25    1
    19    25    26    1
    20    22    23   ar
    21    23    27    1
    22    27    29    1
    23    29    30    1
    24    29    31    2
    25    29    32    2
    26    23    24   ar
    27     9    10   ar
    28    10    16    1
    29    16    17    1
    30    10    11   ar
    31    11     6   ar
    32    24    19   ar
    33    27    28    1
@<TRIPOS>MOLECULE
*****
 32 33 0 0 0
SMALL
GASTEIGER

@<TRIPOS>ATOM
      1 S         140.0142  138.1271  162.6293 S.O2    1  UNL1        0.0141
      2 O         138.6475  137.6608  163.0353 O.2     1  UNL1       -0.1683
      3 O         141.3808  138.5933  162.2234 O.2     1  UNL1       -0.1683
      4 C         140.3482  139.6769  164.6876 C.2     1  UNL1        0.0257
      5 C         140.3806  138.3092  164.0724 C.2     1  UNL1        0.1232
      6 C         141.4477  140.2234  169.0169 C.ar    1  UNL1        0.1448
      7 C         142.5099  140.2855  167.9597 C.ar    1  UNL1        0.0740
      8 C         142.1435  140.1033  166.5166 C.ar    1  UNL1        0.1446
      9 C         140.7147  139.8590  166.1307 C.ar    1  UNL1        0.0694
     10 C         139.6525  139.7969  167.1879 C.ar    1  UNL1        0.1446
     11 C         140.0189  139.9791  168.6310 C.ar    1  UNL1        0.0740
     12 C         141.3197  141.6043  171.2138 C.3     1  UNL1        0.2525
     13 O         141.8141  140.4055  170.4600 O.3     1  UNL1       -0.4712
     14 O         143.2058  140.1654  165.4594 O.3     1  UNL1       -0.4712
     15 C         143.9732  138.9296  165.0937 C.3     1  UNL1        0.2525
     16 O         138.2236  139.5526  166.8020 O.3     1  UNL1       -0.4712
     17 C         137.6583  138.1644  166.8584 C.3     1  UNL1        0.2525
     18 C         139.6477  137.9449  161.1862 C.3     1  UNL1        0.1839
     19 C         139.3496  139.1408  160.3314 C.ar    1  UNL1        0.0224
     20 C         139.5546  139.0716  158.8471 C.ar    1  UNL1        0.0996
     21 N         139.2565  140.2676  157.9922 N.ar    1  UNL1       -0.2093
     22 C         138.7534  141.5328  158.6217 C.ar    1  UNL1        0.2400
     23 C         138.5485  141.6020  160.1060 C.ar    1  UNL1        0.1172
     24 C         138.8466  140.4060  160.9609 C.ar    1  UNL1        0.0196
     25 O         138.4554  142.7288  157.7668 O.3     1  UNL1       -0.4553
     26 C         137.3215  142.6856  156.7858 C.3     1  UNL1        0.2543
     27 N         138.0454  142.8672  160.7355 N.pl3   1  UNL1       -0.2142
     28 H         137.3563  143.4032  160.2805 H       1  UNL1        0.1735
     29 S         138.5923  143.3157  162.0582 S.O2    1  UNL1        0.0559
     30 C         139.1392  143.7643  163.3810 C.3     1  UNL1        0.1996
     31 O         139.8733  143.7209  161.3912 O.2     1  UNL1       -0.1544
     32 O         137.3113  142.9105  162.7253 O.2     1  UNL1       -0.1544
@<TRIPOS>BOND
     1    12    13    1
     2    13     6    1
     3     6     7   ar
     4     7     8   ar
     5     8    14    1
     6    14    15    1
     7     8     9   ar
     8     9     4    1
     9     4     5    2
    10     5     1    1
    11     1     2    2
    12     1     3    2
    13     1    18    1
    14    18    19    1
    15    19    20   ar
    16    20    21   ar
    17    21    22   ar
    18    22    25    1
    19    25    26    1
    20    22    23   ar
    21    23    27    1
    22    27    29    1
    23    29    30    1
    24    29    31    2
    25    29    32    2
    26    23    24   ar
    27     9    10   ar
    28    10    16    1
    29    16    17    1
    30    10    11   ar
    31    11     6   ar
    32    24    19   ar
    33    27    28    1
@<TRIPOS>MOLECULE
*****
 32 33 0 0 0
SMALL
GASTEIGER

@<TRIPOS>ATOM
      1 S         138.3538  140.3419  162.3043 S.O2    1  UNL1        0.0141
      2 O         137.8259  138.9963  162.7048 O.2     1  UNL1       -0.1683
      3 O         138.8818  141.6876  161.9037 O.2     1  UNL1       -0.1683
      4 C         139.7629  140.5119  164.4804 C.2     1  UNL1        0.0257
      5 C         138.4707  140.7263  163.7495 C.2     1  UNL1        0.1232
      6 C         140.1135  141.6649  168.8161 C.ar    1  UNL1        0.1448
      7 C         140.5853  142.6074  167.7488 C.ar    1  UNL1        0.0740
      8 C         140.4684  142.2230  166.3036 C.ar    1  UNL1        0.1446
      9 C         139.8797  140.8962  165.9256 C.ar    1  UNL1        0.0694
     10 C         139.4079  139.9537  166.9929 C.ar    1  UNL1        0.1446
     11 C         139.5248  140.3380  168.4381 C.ar    1  UNL1        0.0740
     12 C         141.3740  141.5345  171.0841 C.3     1  UNL1        0.2525
     13 O         140.2303  142.0492  170.2613 O.3     1  UNL1       -0.4712
     14 O         140.9403  143.1656  165.2364 O.3     1  UNL1       -0.4712
     15 C         140.0193  144.2275  164.7129 C.3     1  UNL1        0.2525
     16 O         138.8192  138.6268  166.6149 O.3     1  UNL1       -0.4712
     17 C         137.4547  138.2443  167.1067 C.3     1  UNL1        0.2525
     18 C         138.2370  139.9576  160.8591 C.3     1  UNL1        0.1839
     19 C         139.4197  139.3821  160.1380 C.ar    1  UNL1        0.0224
     20 C         139.4663  139.4013  158.6389 C.ar    1  UNL1        0.0996
     21 N         140.6490  138.8258  157.9179 N.ar    1  UNL1       -0.2093
     22 C         141.7852  138.2310  158.6960 C.ar    1  UNL1        0.2400
     23 C         141.7386  138.2118  160.1951 C.ar    1  UNL1        0.1172
     24 C         140.5558  138.7873  160.9162 C.ar    1  UNL1        0.0196
     25 O         142.9679  137.6555  157.9750 O.3     1  UNL1       -0.4553
     26 C         142.7933  136.4663  157.0775 C.3     1  UNL1        0.2543
     27 N         142.8746  137.6170  160.9733 N.pl3   1  UNL1       -0.2142
     28 H         143.1541  136.6883  160.8042 H       1  UNL1        0.1735
     29 S         143.5849  138.4373  162.0090 S.O2    1  UNL1        0.0559
     30 C         144.2952  139.2575  163.0447 C.3     1  UNL1        0.1996
     31 O         142.7589  137.7953  163.0839 O.2     1  UNL1       -0.1544
     32 O         144.4110  139.0793  160.9340 O.2     1  UNL1       -0.1544
@<TRIPOS>BOND
     1    12    13    1
     2    13     6    1
     3     6     7   ar
     4     7     8   ar
     5     8    14    1
     6    14    15    1
     7     8     9   ar
     8     9     4    1
     9     4     5    2
    10     5     1    1
    11     1     2    2
    12     1     3    2
    13     1    18    1
    14    18    19    1
    15    19    20   ar
    16    20    21   ar
    17    21    22   ar
    18    22    25    1
    19    25    26    1
    20    22    23   ar
    21    23    27    1
    22    27    29    1
    23    29    30    1
    24    29    31    2
    25    29    32    2
    26    23    24   ar
    27     9    10   ar
    28    10    16    1
    29    16    17    1
    30    10    11   ar
    31    11     6   ar
    32    24    19   ar
    33    27    28    1
@<TRIPOS>MOLECULE
*****
 32 33 0 0 0
SMALL
GASTEIGER

@<TRIPOS>ATOM
      1 S         141.2525  144.8665  160.0894 S.O2    1  UNL1        0.0141
      2 O         139.9732  145.5947  160.3778 O.2     1  UNL1       -0.1683
      3 O         142.5318  144.1383  159.8010 O.2     1  UNL1       -0.1683
      4 C         141.4191  144.8239  162.6818 C.2     1  UNL1        0.0257
      5 C         141.1236  144.1259  161.3874 C.2     1  UNL1        0.1232
      6 C         141.0323  142.6021  166.5758 C.ar    1  UNL1        0.1448
      7 C         142.3313  142.5811  165.8262 C.ar    1  UNL1        0.0740
      8 C         142.4602  143.3217  164.5281 C.ar    1  UNL1        0.1446
      9 C         141.2901  144.0833  163.9798 C.ar    1  UNL1        0.0694
     10 C         139.9911  144.1044  164.7295 C.ar    1  UNL1        0.1446
     11 C         139.8622  143.3638  166.0275 C.ar    1  UNL1        0.0740
     12 C         142.0325  141.0041  168.3635 C.3     1  UNL1        0.2525
     13 O         140.9034  141.8615  167.8739 O.3     1  UNL1       -0.4712
     14 O         143.7593  143.3006  163.7784 O.3     1  UNL1       -0.4712
     15 C         144.7552  142.2085  164.0343 C.3     1  UNL1        0.2525
     16 O         138.8210  144.8661  164.1811 O.3     1  UNL1       -0.4712
     17 C         137.8253  144.1765  163.2963 C.3     1  UNL1        0.2525
     18 C         141.3814  145.6071  158.7914 C.3     1  UNL1        0.1839
     19 C         140.3867  145.3744  157.6931 C.ar    1  UNL1        0.0224
     20 C         139.8656  143.9919  157.4337 C.ar    1  UNL1        0.0996
     21 N         138.8709  143.7592  156.3354 N.ar    1  UNL1       -0.2093
     22 C         138.3972  144.9089  155.4964 C.ar    1  UNL1        0.2400
     23 C         138.9183  146.2914  155.7558 C.ar    1  UNL1        0.1172
     24 C         139.9131  146.5241  156.8542 C.ar    1  UNL1        0.0196
     25 O         137.4025  144.6762  154.3981 O.3     1  UNL1       -0.4553
     26 C         136.6041  143.4067  154.3659 C.3     1  UNL1        0.2543
     27 N         138.4447  147.4411  154.9169 N.pl3   1  UNL1       -0.2142
     28 H         137.5066  147.4807  154.6207 H       1  UNL1        0.1735
     29 S         139.4002  148.5305  154.5294 S.O2    1  UNL1        0.0559
     30 C         140.3558  149.6198  154.1418 C.3     1  UNL1        0.1996
     31 O         140.1591  147.5602  153.6733 O.2     1  UNL1       -0.1544
     32 O         138.6413  149.5007  155.3854 O.2     1  UNL1       -0.1544
@<TRIPOS>BOND
     1    12    13    1
     2    13     6    1
     3     6     7   ar
     4     7     8   ar
     5     8    14    1
     6    14    15    1
     7     8     9   ar
     8     9     4    1
     9     4     5    2
    10     5     1    1
    11     1     2    2
    12     1     3    2
    13     1    18    1
    14    18    19    1
    15    19    20   ar
    16    20    21   ar
    17    21    22   ar
    18    22    25    1
    19    25    26    1
    20    22    23   ar
    21    23    27    1
    22    27    29    1
    23    29    30    1
    24    29    31    2
    25    29    32    2
    26    23    24   ar
    27     9    10   ar
    28    10    16    1
    29    16    17    1
    30    10    11   ar
    31    11     6   ar
    32    24    19   ar
    33    27    28    1
@<TRIPOS>MOLECULE
*****
 32 33 0 0 0
SMALL
GASTEIGER

@<TRIPOS>ATOM
      1 S         141.9990  139.7866  161.4078 S.O2    1  UNL1        0.0141
      2 O         140.5633  139.6735  160.9884 O.2     1  UNL1       -0.1683
      3 O         143.4347  139.8996  161.8273 O.2     1  UNL1       -0.1683
      4 C         141.0740  140.6825  163.6643 C.2     1  UNL1        0.0257
      5 C         141.6009  139.5495  162.8345 C.2     1  UNL1        0.1232
      6 C         139.8796  139.9713  167.9442 C.ar    1  UNL1        0.1448
      7 C         141.2655  140.4456  167.6212 C.ar    1  UNL1        0.0740
      8 C         141.6636  140.6827  166.1945 C.ar    1  UNL1        0.1446
      9 C         140.6759  140.4455  165.0909 C.ar    1  UNL1        0.0694
     10 C         139.2900  139.9712  165.4139 C.ar    1  UNL1        0.1446
     11 C         138.8919  139.7341  166.8406 C.ar    1  UNL1        0.0740
     12 C         140.4690  139.9721  170.4745 C.3     1  UNL1        0.2525
     13 O         139.4815  139.7343  169.3708 O.3     1  UNL1       -0.4712
     14 O         143.0496  141.1569  165.8715 O.3     1  UNL1       -0.4712
     15 C         143.3705  142.6215  165.9159 C.3     1  UNL1        0.2525
     16 O         138.3021  139.7340  164.3103 O.3     1  UNL1       -0.4712
     17 C         137.6642  140.8980  163.6117 C.3     1  UNL1        0.2525
     18 C         142.3971  140.0236  159.9812 C.3     1  UNL1        0.1839
     19 C         142.4155  141.4183  159.4295 C.ar    1  UNL1        0.0224
     20 C         142.7559  141.6499  157.9871 C.ar    1  UNL1        0.0996
     21 N         142.7743  143.0446  157.4354 N.ar    1  UNL1       -0.2093
     22 C         142.4523  144.2078  158.3262 C.ar    1  UNL1        0.2400
     23 C         142.1118  143.9763  159.7685 C.ar    1  UNL1        0.1172
     24 C         142.0935  142.5814  160.3202 C.ar    1  UNL1        0.0196
     25 O         142.4707  145.6026  157.7745 O.3     1  UNL1       -0.4553
     26 C         141.3115  146.1045  156.9655 C.3     1  UNL1        0.2543
     27 N         141.7898  145.1394  160.6592 N.pl3   1  UNL1       -0.2142
     28 H         142.3876  145.9212  160.6833 H       1  UNL1        0.1735
     29 S         140.5570  145.1112  161.5133 S.O2    1  UNL1        0.0559
     30 C         139.3242  145.0831  162.3673 C.3     1  UNL1        0.1996
     31 O         141.4111  145.0248  162.7433 O.2     1  UNL1       -0.1544
     32 O         139.7029  145.1977  160.2832 O.2     1  UNL1       -0.1544
@<TRIPOS>BOND
     1    12    13    1
     2    13     6    1
     3     6     7   ar
     4     7     8   ar
     5     8    14    1
     6    14    15    1
     7     8     9   ar
     8     9     4    1
     9     4     5    2
    10     5     1    1
    11     1     2    2
    12     1     3    2
    13     1    18    1
    14    18    19    1
    15    19    20   ar
    16    20    21   ar
    17    21    22   ar
    18    22    25    1
    19    25    26    1
    20    22    23   ar
    21    23    27    1
    22    27    29    1
    23    29    30    1
    24    29    31    2
    25    29    32    2
    26    23    24   ar
    27     9    10   ar
    28    10    16    1
    29    16    17    1
    30    10    11   ar
    31    11     6   ar
    32    24    19   ar
    33    27    28    1
@<TRIPOS>MOLECULE
*****
 32 33 0 0 0
SMALL
GASTEIGER

@<TRIPOS>ATOM
      1 S         140.8237  138.8117  162.4346 S.O2    1  UNL1        0.0141
      2 O         139.7610  139.8704  162.4348 O.2     1  UNL1       -0.1683
      3 O         141.8864  137.7531  162.4344 O.2     1  UNL1       -0.1683
      4 C         140.4917  140.1883  164.6129 C.2     1  UNL1        0.0257
      5 C         140.9481  138.9363  163.9242 C.2     1  UNL1        0.1232
      6 C         140.8650  140.5620  169.0818 C.ar    1  UNL1        0.1448
      7 C         141.9996  140.9848  168.1964 C.ar    1  UNL1        0.0740
      8 C         141.8752  140.8602  166.7068 C.ar    1  UNL1        0.1446
      9 C         140.6161  140.3129  166.1025 C.ar    1  UNL1        0.0694
     10 C         139.4815  139.8901  166.9879 C.ar    1  UNL1        0.1446
     11 C         139.6060  140.0147  168.4775 C.ar    1  UNL1        0.0740
     12 C         141.7715  141.8198  171.1665 C.3     1  UNL1        0.2525
     13 O         140.9895  140.6866  170.5714 O.3     1  UNL1       -0.4712
     14 O         143.0099  141.2830  165.8214 O.3     1  UNL1       -0.4712
     15 C         143.6601  142.6197  166.0223 C.3     1  UNL1        0.2525
     16 O         138.2224  139.3427  166.3836 O.3     1  UNL1       -0.4712
     17 C         137.4826  138.2325  167.0692 C.3     1  UNL1        0.2525
     18 C         140.6992  138.6871  160.9450 C.3     1  UNL1        0.1839
     19 C         141.8109  139.1624  160.0571 C.ar    1  UNL1        0.0224
     20 C         142.2497  138.3261  158.8918 C.ar    1  UNL1        0.0996
     21 N         143.3614  138.8013  158.0040 N.ar    1  UNL1       -0.2093
     22 C         144.0343  140.1129  158.2814 C.ar    1  UNL1        0.2400
     23 C         143.5954  140.9493  159.4468 C.ar    1  UNL1        0.1172
     24 C         142.4837  140.4739  160.3346 C.ar    1  UNL1        0.0196
     25 O         145.1459  140.5882  157.3936 O.3     1  UNL1       -0.4553
     26 C         145.1647  140.2032  155.9439 C.3     1  UNL1        0.2543
     27 N         144.2683  142.2608  159.7243 N.pl3   1  UNL1       -0.2142
     28 H         144.7474  142.7305  159.0037 H       1  UNL1        0.1735
     29 S         144.2112  142.8568  161.0996 S.O2    1  UNL1        0.0559
     30 C         144.1542  143.4529  162.4749 C.3     1  UNL1        0.1996
     31 O         143.1379  143.8013  160.6457 O.2     1  UNL1       -0.1544
     32 O         145.2846  141.9124  161.5534 O.2     1  UNL1       -0.1544
@<TRIPOS>BOND
     1    12    13    1
     2    13     6    1
     3     6     7   ar
     4     7     8   ar
     5     8    14    1
     6    14    15    1
     7     8     9   ar
     8     9     4    1
     9     4     5    2
    10     5     1    1
    11     1     2    2
    12     1     3    2
    13     1    18    1
    14    18    19    1
    15    19    20   ar
    16    20    21   ar
    17    21    22   ar
    18    22    25    1
    19    25    26    1
    20    22    23   ar
    21    23    27    1
    22    27    29    1
    23    29    30    1
    24    29    31    2
    25    29    32    2
    26    23    24   ar
    27     9    10   ar
    28    10    16    1
    29    16    17    1
    30    10    11   ar
    31    11     6   ar
    32    24    19   ar
    33    27    28    1
@<TRIPOS>MOLECULE
*****
 32 33 0 0 0
SMALL
GASTEIGER

@<TRIPOS>ATOM
      1 S         139.7485  143.8266  164.8154 S.O2    1  UNL1        0.0141
      2 O         138.6083  142.8885  165.0796 O.2     1  UNL1       -0.1683
      3 O         140.8887  144.7647  164.5511 O.2     1  UNL1       -0.1683
      4 C         140.0175  141.9118  166.5507 C.2     1  UNL1        0.0257
      5 C         140.5916  143.0811  165.8070 C.2     1  UNL1        0.1232
      6 C         142.5470  139.6754  169.5255 C.ar    1  UNL1        0.1448
      7 C         142.5888  139.3006  168.0737 C.ar    1  UNL1        0.0740
      8 C         141.7456  140.0461  167.0821 C.ar    1  UNL1        0.1446
      9 C         140.8607  141.1663  167.5423 C.ar    1  UNL1        0.0694
     10 C         140.8189  141.5411  168.9941 C.ar    1  UNL1        0.1446
     11 C         141.6621  140.7956  169.9857 C.ar    1  UNL1        0.0740
     12 C         143.4283  137.4306  170.4921 C.3     1  UNL1        0.2525
     13 O         143.3902  138.9299  170.5171 O.3     1  UNL1       -0.4712
     14 O         141.7874  139.6712  165.6302 O.3     1  UNL1       -0.4712
     15 C         142.5914  138.4860  165.1845 C.3     1  UNL1        0.2525
     16 O         139.9339  142.6615  169.4543 O.3     1  UNL1       -0.4712
     17 C         140.5394  143.9502  169.9260 C.3     1  UNL1        0.2525
     18 C         138.9053  144.5721  163.8238 C.3     1  UNL1        0.1839
     19 C         139.2898  144.5877  162.3740 C.ar    1  UNL1        0.0224
     20 C         139.6026  145.8881  161.6950 C.ar    1  UNL1        0.0996
     21 N         139.9871  145.9038  160.2452 N.ar    1  UNL1       -0.2093
     22 C         140.0590  144.6189  159.4744 C.ar    1  UNL1        0.2400
     23 C         139.7463  143.3185  160.1535 C.ar    1  UNL1        0.1172
     24 C         139.3617  143.3029  161.6033 C.ar    1  UNL1        0.0196
     25 O         140.4435  144.6345  158.0247 O.3     1  UNL1       -0.4553
     26 C         140.4440  145.9266  157.2627 C.3     1  UNL1        0.2543
     27 N         139.8181  142.0337  159.3827 N.pl3   1  UNL1       -0.2142
     28 H         139.6386  142.0297  158.4147 H       1  UNL1        0.1735
     29 S         140.1633  140.7550  160.0868 S.O2    1  UNL1        0.0559
     30 C         140.5086  139.4763  160.7909 C.3     1  UNL1        0.1996
     31 O         138.7258  140.3315  160.0226 O.2     1  UNL1       -0.1544
     32 O         141.6008  141.1785  160.1511 O.2     1  UNL1       -0.1544
@<TRIPOS>BOND
     1    12    13    1
     2    13     6    1
     3     6     7   ar
     4     7     8   ar
     5     8    14    1
     6    14    15    1
     7     8     9   ar
     8     9     4    1
     9     4     5    2
    10     5     1    1
    11     1     2    2
    12     1     3    2
    13     1    18    1
    14    18    19    1
    15    19    20   ar
    16    20    21   ar
    17    21    22   ar
    18    22    25    1
    19    25    26    1
    20    22    23   ar
    21    23    27    1
    22    27    29    1
    23    29    30    1
    24    29    31    2
    25    29    32    2
    26    23    24   ar
    27     9    10   ar
    28    10    16    1
    29    16    17    1
    30    10    11   ar
    31    11     6   ar
    32    24    19   ar
    33    27    28    1
