@<TRIPOS>MOLECULE
*****
 32 37 0 0 0
SMALL
GASTEIGER

@<TRIPOS>ATOM
      1 O         137.7054  143.1553  161.2555 O.2     1  UNL1       -0.2443
      2 C         138.7163  142.4817  160.3755 C.ar    1  UNL1        0.3532
      3 N         138.7355  140.9860  160.2639 N.ar    1  UNL1       -0.2702
      4 C         139.7463  140.3125  159.3840 C.ar    1  UNL1        0.0965
      5 S         140.0055  138.8672  159.0769 S.2     1  UNL1       -0.0728
      6 C         141.1573  138.7962  158.1188 C.ar    1  UNL1        0.0210
      7 C         141.6102  140.1975  157.8336 C.ar    1  UNL1       -0.0126
      8 C         140.7381  141.1346  158.6155 C.ar    1  UNL1        0.0545
      9 C         140.7190  142.6303  158.7271 C.ar    1  UNL1        0.1717
     10 N         141.5655  143.6949  158.0945 N.ar    1  UNL1       -0.2032
     11 C         141.0777  145.0264  158.5835 C.ar    1  UNL1        0.2214
     12 N         139.9298  144.7848  159.5184 N.ar    1  UNL1       -0.1372
     13 N         139.7081  143.3039  159.6071 N.ar    1  UNL1       -0.1606
     14 C         142.7581  140.4391  156.8988 C.3     1  UNL1        0.0441
     15 C         143.4531  139.2795  156.2491 C.3     1  UNL1        0.0771
     16 N         143.0003  137.8782  156.5343 N.3     1  UNL1       -0.2682
     17 C         141.8524  137.6365  157.4691 C.3     1  UNL1        0.1054
     18 C         137.7436  140.1639  161.0324 C.3     1  UNL1        0.1378
     19 C         138.0066  139.8210  162.4688 C.ar    1  UNL1        0.0006
     20 C         137.7440  140.8352  163.5423 C.ar    1  UNL1       -0.0015
     21 C         138.0070  140.4923  164.9787 C.ar    1  UNL1        0.0111
     22 C         138.5326  139.1350  165.3416 C.ar    1  UNL1        0.0577
     23 CL        138.7956  138.7921  166.7780 Cl      1  UNL1       -0.0822
     24 C         138.7953  138.1208  164.2682 C.ar    1  UNL1        0.0111
     25 C         138.5323  138.4638  162.8317 C.ar    1  UNL1       -0.0015
     26 C         143.6954  136.7185  155.8846 C.3     1  UNL1        0.0725
     27 C         143.1357  135.3341  156.0253 C.3     1  UNL1        0.0210
     28 C         143.7147  134.3903  157.0372 C.3     1  UNL1        0.0335
     29 C         143.1549  133.0057  157.1778 C.3     1  UNL1        0.1422
     30 O         142.0162  132.5650  156.3065 O.3     1  UNL1       -0.3538
     31 C         141.4373  133.5089  155.2946 C.3     1  UNL1        0.1422
     32 C         141.9970  134.8933  155.1540 C.3     1  UNL1        0.0335
@<TRIPOS>BOND
     1     1     2    2
     2     2     3   ar
     3     3    18    1
     4    18    19    1
     5    19    20   ar
     6    20    21   ar
     7    21    22   ar
     8    22    23    1
     9    22    24   ar
    10    24    25   ar
    11     3     4   ar
    12     4     5   ar
    13     5     6   ar
    14     6     7   ar
    15     7     8   ar
    16     8     9   ar
    17     9    10   ar
    18    10    11   ar
    19    11    12   ar
    20    12    13   ar
    21     7    14    1
    22    14    15    1
    23    15    16    1
    24    16    26    1
    25    26    27    1
    26    27    28    1
    27    28    29    1
    28    29    30    1
    29    30    31    1
    30    31    32    1
    31    16    17    1
    32    13     2   ar
    33    32    27    1
    34    25    19   ar
    35     8     4   ar
    36    13     9   ar
    37    17     6    1
@<TRIPOS>MOLECULE
*****
 32 37 0 0 0
SMALL
GASTEIGER

@<TRIPOS>ATOM
      1 O         138.6440  140.0682  166.1518 O.2     1  UNL1       -0.2443
      2 C         139.0598  140.6221  164.8212 C.ar    1  UNL1        0.3532
      3 N         139.5240  142.0443  164.7129 N.ar    1  UNL1       -0.2702
      4 C         139.9398  142.5982  163.3824 C.ar    1  UNL1        0.0965
      5 S         140.4380  143.9517  162.9699 S.2     1  UNL1       -0.0728
      6 C         140.6974  143.9198  161.4929 C.ar    1  UNL1        0.0210
      7 C         140.3594  142.5467  160.9924 C.ar    1  UNL1       -0.0126
      8 C         139.8912  141.7299  162.1601 C.ar    1  UNL1        0.0545
      9 C         139.4270  140.3077  162.2685 C.ar    1  UNL1        0.1717
     10 N         139.2739  139.2212  161.2458 N.ar    1  UNL1       -0.2032
     11 C         138.7635  137.9958  161.9442 C.ar    1  UNL1        0.2214
     12 N         138.6012  138.3249  163.3986 N.ar    1  UNL1       -0.1372
     13 N         139.0112  139.7538  163.5991 N.ar    1  UNL1       -0.1606
     14 C         140.5218  142.2176  159.5380 C.3     1  UNL1        0.0441
     15 C         141.0220  143.2615  158.5841 C.3     1  UNL1        0.0771
     16 N         141.3599  144.6346  159.0846 N.3     1  UNL1       -0.2682
     17 C         141.1976  144.9638  160.5389 C.3     1  UNL1        0.1054
     18 C         139.5726  142.9126  165.9351 C.3     1  UNL1        0.1378
     19 C         140.6902  142.7550  166.9231 C.ar    1  UNL1        0.0006
     20 C         140.4509  143.0346  168.3772 C.ar    1  UNL1       -0.0015
     21 C         141.5686  142.8770  169.3652 C.ar    1  UNL1        0.0111
     22 C         142.9256  142.4398  168.8989 C.ar    1  UNL1        0.0577
     23 CL        144.0433  142.2822  169.8868 Cl      1  UNL1       -0.0822
     24 C         143.1649  142.1602  167.4448 C.ar    1  UNL1        0.0111
     25 C         142.0472  142.3178  166.4568 C.ar    1  UNL1       -0.0015
     26 C         141.8601  145.6785  158.1306 C.3     1  UNL1        0.0725
     27 C         141.1537  145.9030  156.8266 C.3     1  UNL1        0.0210
     28 C         139.8266  146.6018  156.8031 C.3     1  UNL1        0.0335
     29 C         139.1202  146.8264  155.4991 C.3     1  UNL1        0.1422
     30 O         139.7408  146.3521  154.2185 O.3     1  UNL1       -0.3538
     31 C         141.0679  145.6534  154.2420 C.3     1  UNL1        0.1422
     32 C         141.7743  145.4288  155.5459 C.3     1  UNL1        0.0335
@<TRIPOS>BOND
     1     1     2    2
     2     2     3   ar
     3     3    18    1
     4    18    19    1
     5    19    20   ar
     6    20    21   ar
     7    21    22   ar
     8    22    23    1
     9    22    24   ar
    10    24    25   ar
    11     3     4   ar
    12     4     5   ar
    13     5     6   ar
    14     6     7   ar
    15     7     8   ar
    16     8     9   ar
    17     9    10   ar
    18    10    11   ar
    19    11    12   ar
    20    12    13   ar
    21     7    14    1
    22    14    15    1
    23    15    16    1
    24    16    26    1
    25    26    27    1
    26    27    28    1
    27    28    29    1
    28    29    30    1
    29    30    31    1
    30    31    32    1
    31    16    17    1
    32    13     2   ar
    33    32    27    1
    34    25    19   ar
    35     8     4   ar
    36    13     9   ar
    37    17     6    1
@<TRIPOS>MOLECULE
*****
 32 37 0 0 0
SMALL
GASTEIGER

@<TRIPOS>ATOM
      1 O         143.4631  142.1860  166.6089 O.2     1  UNL1       -0.2443
      2 C         143.4419  141.7245  165.1818 C.ar    1  UNL1        0.3532
      3 N         143.1914  140.2800  164.8644 N.ar    1  UNL1       -0.2702
      4 C         143.1702  139.8184  163.4374 C.ar    1  UNL1        0.0965
      5 S         142.9501  138.4680  162.8224 S.2     1  UNL1       -0.0728
      6 C         143.0434  138.6163  161.3328 C.ar    1  UNL1        0.0210
      7 C         143.3212  140.0584  161.0270 C.ar    1  UNL1       -0.0126
      8 C         143.3995  140.8013  162.3277 C.ar    1  UNL1        0.0545
      9 C         143.6500  142.2457  162.6451 C.ar    1  UNL1        0.1717
     10 N         143.9070  143.4359  161.7690 N.ar    1  UNL1       -0.2032
     11 C         144.0869  144.6331  162.6546 C.ar    1  UNL1        0.2214
     12 N         143.9413  144.1828  164.0780 N.ar    1  UNL1       -0.1372
     13 N         143.6712  142.7073  164.0721 N.ar    1  UNL1       -0.1606
     14 C         143.4669  140.5086  159.6036 C.3     1  UNL1        0.0441
     15 C         143.3348  139.5169  158.4860 C.3     1  UNL1        0.0771
     16 N         143.0571  138.0749  158.7918 N.3     1  UNL1       -0.2682
     17 C         142.9114  137.6246  160.2151 C.3     1  UNL1        0.1054
     18 C         142.9621  139.2971  165.9742 C.3     1  UNL1        0.1378
     19 C         141.8947  139.5553  166.9959 C.ar    1  UNL1        0.0006
     20 C         142.2540  139.6457  168.4495 C.ar    1  UNL1       -0.0015
     21 C         141.1866  139.9039  169.4713 C.ar    1  UNL1        0.0111
     22 C         139.7599  140.0718  169.0395 C.ar    1  UNL1        0.0577
     23 CL        138.6925  140.3300  170.0613 Cl      1  UNL1       -0.0822
     24 C         139.4006  139.9814  167.5860 C.ar    1  UNL1        0.0111
     25 C         140.4681  139.7232  166.5642 C.ar    1  UNL1       -0.0015
     26 C         142.9250  137.0832  157.6741 C.3     1  UNL1        0.0725
     27 C         141.6725  137.0446  156.8497 C.3     1  UNL1        0.0210
     28 C         141.5900  136.1446  155.6526 C.3     1  UNL1        0.0335
     29 C         140.3374  136.1060  154.8282 C.3     1  UNL1        0.1422
     30 O         139.1674  136.9673  155.2010 O.3     1  UNL1       -0.3538
     31 C         139.2499  137.8673  156.3982 C.3     1  UNL1        0.1422
     32 C         140.5024  137.9060  157.2225 C.3     1  UNL1        0.0335
@<TRIPOS>BOND
     1     1     2    2
     2     2     3   ar
     3     3    18    1
     4    18    19    1
     5    19    20   ar
     6    20    21   ar
     7    21    22   ar
     8    22    23    1
     9    22    24   ar
    10    24    25   ar
    11     3     4   ar
    12     4     5   ar
    13     5     6   ar
    14     6     7   ar
    15     7     8   ar
    16     8     9   ar
    17     9    10   ar
    18    10    11   ar
    19    11    12   ar
    20    12    13   ar
    21     7    14    1
    22    14    15    1
    23    15    16    1
    24    16    26    1
    25    26    27    1
    26    27    28    1
    27    28    29    1
    28    29    30    1
    29    30    31    1
    30    31    32    1
    31    16    17    1
    32    13     2   ar
    33    32    27    1
    34    25    19   ar
    35     8     4   ar
    36    13     9   ar
    37    17     6    1
@<TRIPOS>MOLECULE
*****
 32 37 0 0 0
SMALL
GASTEIGER

@<TRIPOS>ATOM
      1 O         143.6897  142.5349  166.9392 O.2     1  UNL1       -0.2443
      2 C         143.4200  142.1745  165.5083 C.ar    1  UNL1        0.3532
      3 N         143.0021  140.7785  165.1525 N.ar    1  UNL1       -0.2702
      4 C         142.7324  140.4181  163.7217 C.ar    1  UNL1        0.0965
      5 S         142.3090  139.1336  163.0728 S.2     1  UNL1       -0.0728
      6 C         142.1956  139.3753  161.5968 C.ar    1  UNL1        0.0210
      7 C         142.5489  140.8092  161.3334 C.ar    1  UNL1       -0.0126
      8 C         142.8806  141.4536  162.6466 C.ar    1  UNL1        0.0545
      9 C         143.2985  142.8496  163.0024 C.ar    1  UNL1        0.1717
     10 N         143.5260  144.0733  162.1653 N.ar    1  UNL1       -0.2032
     11 C         143.9363  145.1900  163.0789 C.ar    1  UNL1        0.2214
     12 N         143.9624  144.6565  164.4805 N.ar    1  UNL1       -0.1372
     13 N         143.5682  143.2100  164.4333 N.ar    1  UNL1       -0.1606
     14 C         142.5228  141.3427  159.9317 C.3     1  UNL1        0.0441
     15 C         142.1435  140.4424  158.7935 C.3     1  UNL1        0.0771
     16 N         141.7903  139.0086  159.0569 N.3     1  UNL1       -0.2682
     17 C         141.8163  138.4750  160.4585 C.3     1  UNL1        0.1054
     18 C         142.8539  139.7430  166.2276 C.3     1  UNL1        0.1378
     19 C         141.7223  139.8363  167.2078 C.ar    1  UNL1        0.0006
     20 C         140.3049  139.8583  166.7173 C.ar    1  UNL1       -0.0015
     21 C         139.1733  139.9516  167.6975 C.ar    1  UNL1        0.0111
     22 C         139.4592  140.0230  169.1684 C.ar    1  UNL1        0.0577
     23 CL        138.3276  140.1163  170.1486 Cl      1  UNL1       -0.0822
     24 C         140.8765  140.0010  169.6589 C.ar    1  UNL1        0.0111
     25 C         142.0081  139.9076  168.6786 C.ar    1  UNL1       -0.0015
     26 C         141.4110  138.1083  157.9186 C.3     1  UNL1        0.0725
     27 C         142.4756  137.5189  157.0417 C.3     1  UNL1        0.0210
     28 C         142.7224  136.0394  157.0529 C.3     1  UNL1        0.0335
     29 C         143.7871  135.4500  156.1759 C.3     1  UNL1        0.1422
     30 O         144.6049  136.3401  155.2877 O.3     1  UNL1       -0.3538
     31 C         144.3580  137.8196  155.2764 C.3     1  UNL1        0.1422
     32 C         143.2934  138.4090  156.1534 C.3     1  UNL1        0.0335
@<TRIPOS>BOND
     1     1     2    2
     2     2     3   ar
     3     3    18    1
     4    18    19    1
     5    19    20   ar
     6    20    21   ar
     7    21    22   ar
     8    22    23    1
     9    22    24   ar
    10    24    25   ar
    11     3     4   ar
    12     4     5   ar
    13     5     6   ar
    14     6     7   ar
    15     7     8   ar
    16     8     9   ar
    17     9    10   ar
    18    10    11   ar
    19    11    12   ar
    20    12    13   ar
    21     7    14    1
    22    14    15    1
    23    15    16    1
    24    16    26    1
    25    26    27    1
    26    27    28    1
    27    28    29    1
    28    29    30    1
    29    30    31    1
    30    31    32    1
    31    16    17    1
    32    13     2   ar
    33    32    27    1
    34    25    19   ar
    35     8     4   ar
    36    13     9   ar
    37    17     6    1
@<TRIPOS>MOLECULE
*****
 32 37 0 0 0
SMALL
GASTEIGER

@<TRIPOS>ATOM
      1 O         140.9771  143.5771  158.1131 O.2     1  UNL1       -0.2443
      2 C         141.0889  143.3416  159.5903 C.ar    1  UNL1        0.3532
      3 N         141.6987  142.0707  160.1031 N.ar    1  UNL1       -0.2702
      4 C         141.8105  141.8352  161.5802 C.ar    1  UNL1        0.0965
      5 S         142.3606  140.6881  162.3750 S.2     1  UNL1       -0.0728
      6 C         142.2026  141.0145  163.8304 C.ar    1  UNL1        0.0210
      7 C         141.5548  142.3634  163.9353 C.ar    1  UNL1       -0.0126
      8 C         141.3125  142.8706  162.5446 C.ar    1  UNL1        0.0545
      9 C         140.7027  144.1415  162.0318 C.ar    1  UNL1        0.1717
     10 N         140.1290  145.3351  162.7362 N.ar    1  UNL1       -0.2032
     11 C         139.6626  146.3082  161.6944 C.ar    1  UNL1        0.2214
     12 N         139.9481  145.7161  160.3461 N.ar    1  UNL1       -0.1372
     13 N         140.5909  144.3770  160.5546 N.ar    1  UNL1       -0.1606
     14 C         141.2693  142.9555  165.2836 C.3     1  UNL1        0.0441
     15 C         141.6316  142.1988  166.5270 C.3     1  UNL1        0.0771
     16 N         142.2793  140.8499  166.4221 N.3     1  UNL1       -0.2682
     17 C         142.5649  140.2578  165.0739 C.3     1  UNL1        0.1054
     18 C         142.1967  141.0353  159.1387 C.3     1  UNL1        0.1378
     19 C         143.4583  141.2771  158.3642 C.ar    1  UNL1        0.0006
     20 C         144.4031  142.3620  158.7891 C.ar    1  UNL1       -0.0015
     21 C         145.6647  142.6037  158.0146 C.ar    1  UNL1        0.0111
     22 C         145.9816  141.7605  156.8152 C.ar    1  UNL1        0.0577
     23 CL        147.2433  142.0022  156.0407 Cl      1  UNL1       -0.0822
     24 C         145.0370  140.6756  156.3903 C.ar    1  UNL1        0.0111
     25 C         143.7753  140.4339  157.1648 C.ar    1  UNL1       -0.0015
     26 C         142.6416  140.0932  167.6656 C.3     1  UNL1        0.0725
     27 C         141.9937  140.4435  168.9723 C.3     1  UNL1        0.0210
     28 C         140.6488  139.8766  169.3183 C.3     1  UNL1        0.0335
     29 C         140.0009  140.2270  170.6250 C.3     1  UNL1        0.1422
     30 O         140.6979  141.1441  171.5857 O.3     1  UNL1       -0.3538
     31 C         142.0429  141.7110  171.2397 C.3     1  UNL1        0.1422
     32 C         142.6908  141.3607  169.9330 C.3     1  UNL1        0.0335
@<TRIPOS>BOND
     1     1     2    2
     2     2     3   ar
     3     3    18    1
     4    18    19    1
     5    19    20   ar
     6    20    21   ar
     7    21    22   ar
     8    22    23    1
     9    22    24   ar
    10    24    25   ar
    11     3     4   ar
    12     4     5   ar
    13     5     6   ar
    14     6     7   ar
    15     7     8   ar
    16     8     9   ar
    17     9    10   ar
    18    10    11   ar
    19    11    12   ar
    20    12    13   ar
    21     7    14    1
    22    14    15    1
    23    15    16    1
    24    16    26    1
    25    26    27    1
    26    27    28    1
    27    28    29    1
    28    29    30    1
    29    30    31    1
    30    31    32    1
    31    16    17    1
    32    13     2   ar
    33    32    27    1
    34    25    19   ar
    35     8     4   ar
    36    13     9   ar
    37    17     6    1
@<TRIPOS>MOLECULE
*****
 32 37 0 0 0
SMALL
GASTEIGER

@<TRIPOS>ATOM
      1 O         142.3343  144.5080  160.8985 O.2     1  UNL1       -0.2443
      2 C         141.4040  144.0812  159.8019 C.ar    1  UNL1        0.3532
      3 N         140.4100  142.9847  160.0461 N.ar    1  UNL1       -0.2702
      4 C         139.4797  142.5579  158.9497 C.ar    1  UNL1        0.0965
      5 S         138.4034  141.5143  158.8959 S.2     1  UNL1       -0.0728
      6 C         137.8019  141.5392  157.5221 C.ar    1  UNL1        0.0210
      7 C         138.5063  142.5981  156.7267 C.ar    1  UNL1       -0.0126
      8 C         139.5433  143.2276  157.6089 C.ar    1  UNL1        0.0545
      9 C         140.5372  144.3242  157.3648 C.ar    1  UNL1        0.1717
     10 N         140.8304  145.1622  156.1557 N.ar    1  UNL1       -0.2032
     11 C         141.9419  146.1069  156.5050 C.ar    1  UNL1        0.2214
     12 N         142.3357  145.8528  157.9299 N.ar    1  UNL1       -0.1372
     13 N         141.4676  144.7510  158.4613 N.ar    1  UNL1       -0.1606
     14 C         138.1125  142.8522  155.3018 C.3     1  UNL1        0.0441
     15 C         137.0143  142.0475  154.6723 C.3     1  UNL1        0.0771
     16 N         136.3099  140.9887  155.4677 N.3     1  UNL1       -0.2682
     17 C         136.7036  140.7345  156.8925 C.3     1  UNL1        0.1054
     18 C         140.3465  142.3149  161.3868 C.3     1  UNL1        0.1378
     19 C         139.8029  143.0577  162.5712 C.ar    1  UNL1        0.0006
     20 C         140.6946  143.3652  163.7376 C.ar    1  UNL1       -0.0015
     21 C         140.1510  144.1081  164.9219 C.ar    1  UNL1        0.0111
     22 C         138.7156  144.5434  164.9399 C.ar    1  UNL1        0.0577
     23 CL        138.1720  145.2862  166.1242 Cl      1  UNL1       -0.0822
     24 C         137.8240  144.2360  163.7736 C.ar    1  UNL1        0.0111
     25 C         138.3676  143.4931  162.5892 C.ar    1  UNL1       -0.0015
     26 C         135.2116  140.1840  154.8381 C.3     1  UNL1        0.0725
     27 C         133.8384  140.1881  155.4414 C.3     1  UNL1        0.0210
     28 C         132.8787  141.2935  155.1142 C.3     1  UNL1        0.0335
     29 C         131.5054  141.2976  155.7176 C.3     1  UNL1        0.1422
     30 O         131.0918  140.1962  156.6481 O.3     1  UNL1       -0.3538
     31 C         132.0514  139.0908  156.9753 C.3     1  UNL1        0.1422
     32 C         133.4246  139.0867  156.3720 C.3     1  UNL1        0.0335
@<TRIPOS>BOND
     1     1     2    2
     2     2     3   ar
     3     3    18    1
     4    18    19    1
     5    19    20   ar
     6    20    21   ar
     7    21    22   ar
     8    22    23    1
     9    22    24   ar
    10    24    25   ar
    11     3     4   ar
    12     4     5   ar
    13     5     6   ar
    14     6     7   ar
    15     7     8   ar
    16     8     9   ar
    17     9    10   ar
    18    10    11   ar
    19    11    12   ar
    20    12    13   ar
    21     7    14    1
    22    14    15    1
    23    15    16    1
    24    16    26    1
    25    26    27    1
    26    27    28    1
    27    28    29    1
    28    29    30    1
    29    30    31    1
    30    31    32    1
    31    16    17    1
    32    13     2   ar
    33    32    27    1
    34    25    19   ar
    35     8     4   ar
    36    13     9   ar
    37    17     6    1
@<TRIPOS>MOLECULE
*****
 32 37 0 0 0
SMALL
GASTEIGER

@<TRIPOS>ATOM
      1 O         137.6832  144.3059  163.3545 O.2     1  UNL1       -0.2443
      2 C         138.5458  143.5230  162.4095 C.ar    1  UNL1        0.3532
      3 N         138.6178  142.0290  162.5225 N.ar    1  UNL1       -0.2702
      4 C         139.4804  141.2461  161.5777 C.ar    1  UNL1        0.0965
      5 S         139.7494  139.7760  161.4477 S.2     1  UNL1       -0.0728
      6 C         140.7061  139.5787  160.3096 C.ar    1  UNL1        0.0210
      7 C         141.0286  140.9267  159.7360 C.ar    1  UNL1       -0.0126
      8 C         140.2711  141.9572  160.5197 C.ar    1  UNL1        0.0545
      9 C         140.1991  143.4512  160.4067 C.ar    1  UNL1        0.1717
     10 N         140.8603  144.4200  159.4717 N.ar    1  UNL1       -0.2032
     11 C         140.4063  145.8017  159.8388 C.ar    1  UNL1        0.2214
     12 N         139.4645  145.6868  161.0006 N.ar    1  UNL1       -0.1372
     13 N         139.3365  144.2341  161.3516 N.ar    1  UNL1       -0.1606
     14 C         141.9704  141.0416  158.5741 C.3     1  UNL1        0.0441
     15 C         142.5897  139.8085  157.9859 C.3     1  UNL1        0.0771
     16 N         142.2672  138.4606  158.5595 N.3     1  UNL1       -0.2682
     17 C         141.3255  138.3456  159.7213 C.3     1  UNL1        0.1054
     18 C         137.8271  141.3179  163.5805 C.3     1  UNL1        0.1378
     19 C         138.4689  140.9733  164.8918 C.ar    1  UNL1        0.0006
     20 C         139.4224  141.9355  165.5361 C.ar    1  UNL1       -0.0015
     21 C         140.0641  141.5909  166.8473 C.ar    1  UNL1        0.0111
     22 C         139.7523  140.2840  167.5143 C.ar    1  UNL1        0.0577
     23 CL        140.3941  139.9393  168.8256 Cl      1  UNL1       -0.0822
     24 C         138.7989  139.3218  166.8701 C.ar    1  UNL1        0.0111
     25 C         138.1571  139.6665  165.5588 C.ar    1  UNL1       -0.0015
     26 C         142.8866  137.2275  157.9712 C.3     1  UNL1        0.0725
     27 C         142.1713  136.4709  156.8915 C.3     1  UNL1        0.0210
     28 C         140.9992  137.0918  156.1910 C.3     1  UNL1        0.0335
     29 C         140.2839  136.3352  155.1113 C.3     1  UNL1        0.1422
     30 O         140.7406  134.9576  154.7321 O.3     1  UNL1       -0.3538
     31 C         141.9126  134.3367  155.4327 C.3     1  UNL1        0.1422
     32 C         142.6279  135.0933  156.5123 C.3     1  UNL1        0.0335
@<TRIPOS>BOND
     1     1     2    2
     2     2     3   ar
     3     3    18    1
     4    18    19    1
     5    19    20   ar
     6    20    21   ar
     7    21    22   ar
     8    22    23    1
     9    22    24   ar
    10    24    25   ar
    11     3     4   ar
    12     4     5   ar
    13     5     6   ar
    14     6     7   ar
    15     7     8   ar
    16     8     9   ar
    17     9    10   ar
    18    10    11   ar
    19    11    12   ar
    20    12    13   ar
    21     7    14    1
    22    14    15    1
    23    15    16    1
    24    16    26    1
    25    26    27    1
    26    27    28    1
    27    28    29    1
    28    29    30    1
    29    30    31    1
    30    31    32    1
    31    16    17    1
    32    13     2   ar
    33    32    27    1
    34    25    19   ar
    35     8     4   ar
    36    13     9   ar
    37    17     6    1
@<TRIPOS>MOLECULE
*****
 32 37 0 0 0
SMALL
GASTEIGER

@<TRIPOS>ATOM
      1 O         141.8843  145.8516  158.7596 O.2     1  UNL1       -0.2443
      2 C         140.7716  145.1602  158.0289 C.ar    1  UNL1        0.3532
      3 N         140.2207  143.8668  158.5521 N.ar    1  UNL1       -0.2702
      4 C         139.1081  143.1755  157.8215 C.ar    1  UNL1        0.0965
      5 S         138.3681  141.8995  158.0950 S.2     1  UNL1       -0.0728
      6 C         137.3491  141.7130  157.0103 C.ar    1  UNL1        0.0210
      7 C         137.4592  142.8736  156.0663 C.ar    1  UNL1       -0.0126
      8 C         138.5462  143.7774  156.5676 C.ar    1  UNL1        0.0545
      9 C         139.0971  145.0708  156.0445 C.ar    1  UNL1        0.1717
     10 N         138.7473  145.8978  154.8430 N.ar    1  UNL1       -0.2032
     11 C         139.6438  147.1003  154.8311 C.ar    1  UNL1        0.2214
     12 N         140.5477  147.0165  156.0252 N.ar    1  UNL1       -0.1372
     13 N         140.2098  145.7622  156.7751 N.ar    1  UNL1       -0.1606
     14 C         136.5552  142.9574  154.8721 C.3     1  UNL1        0.0441
     15 C         135.5413  141.8807  154.6220 C.3     1  UNL1        0.0771
     16 N         135.4313  140.7202  155.5659 N.3     1  UNL1       -0.2682
     17 C         136.3351  140.6363  156.7600 C.3     1  UNL1        0.1054
     18 C         140.7826  143.2649  159.8059 C.3     1  UNL1        0.1378
     19 C         140.2595  143.6955  161.1442 C.ar    1  UNL1        0.0006
     20 C         138.9040  143.2433  161.6006 C.ar    1  UNL1       -0.0015
     21 C         138.3809  143.6739  162.9388 C.ar    1  UNL1        0.0111
     22 C         139.2133  144.5567  163.8208 C.ar    1  UNL1        0.0577
     23 CL        138.6902  144.9872  165.1591 Cl      1  UNL1       -0.0822
     24 C         140.5687  145.0088  163.3645 C.ar    1  UNL1        0.0111
     25 C         141.0919  144.5782  162.0262 C.ar    1  UNL1       -0.0015
     26 C         134.4173  139.6434  155.3157 C.3     1  UNL1        0.0725
     27 C         133.1223  139.6422  156.0725 C.3     1  UNL1        0.0210
     28 C         132.8952  138.6439  157.1687 C.3     1  UNL1        0.0335
     29 C         131.6001  138.6427  157.9256 C.3     1  UNL1        0.1422
     30 O         130.5321  139.6398  157.5862 O.3     1  UNL1       -0.3538
     31 C         130.7593  140.6382  156.4899 C.3     1  UNL1        0.1422
     32 C         132.0542  140.6394  155.7331 C.3     1  UNL1        0.0335
@<TRIPOS>BOND
     1     1     2    2
     2     2     3   ar
     3     3    18    1
     4    18    19    1
     5    19    20   ar
     6    20    21   ar
     7    21    22   ar
     8    22    23    1
     9    22    24   ar
    10    24    25   ar
    11     3     4   ar
    12     4     5   ar
    13     5     6   ar
    14     6     7   ar
    15     7     8   ar
    16     8     9   ar
    17     9    10   ar
    18    10    11   ar
    19    11    12   ar
    20    12    13   ar
    21     7    14    1
    22    14    15    1
    23    15    16    1
    24    16    26    1
    25    26    27    1
    26    27    28    1
    27    28    29    1
    28    29    30    1
    29    30    31    1
    30    31    32    1
    31    16    17    1
    32    13     2   ar
    33    32    27    1
    34    25    19   ar
    35     8     4   ar
    36    13     9   ar
    37    17     6    1
@<TRIPOS>MOLECULE
*****
 32 37 0 0 0
SMALL
GASTEIGER

@<TRIPOS>ATOM
      1 O         141.1172  137.5366  164.7719 O.2     1  UNL1       -0.2443
      2 C         140.8947  138.6154  163.7537 C.ar    1  UNL1        0.3532
      3 N         141.8902  139.7282  163.6103 N.ar    1  UNL1       -0.2702
      4 C         141.6678  140.8069  162.5922 C.ar    1  UNL1        0.0965
      5 S         142.4687  142.0209  162.2246 S.2     1  UNL1       -0.0728
      6 C         141.7457  142.7371  161.1227 C.ar    1  UNL1        0.0210
      7 C         140.4979  141.9658  160.8091 C.ar    1  UNL1       -0.0126
      8 C         140.4498  140.7729  161.7172 C.ar    1  UNL1        0.0545
      9 C         139.4543  139.6601  161.8606 C.ar    1  UNL1        0.1717
     10 N         138.1702  139.3637  161.1442 N.ar    1  UNL1       -0.2032
     11 C         137.5990  138.1018  161.7198 C.ar    1  UNL1        0.2214
     12 N         138.5301  137.6182  162.7918 N.ar    1  UNL1       -0.1372
     13 N         139.6768  138.5813  162.8788 N.ar    1  UNL1       -0.1606
     14 C         139.5668  142.4493  159.7371 C.3     1  UNL1        0.0441
     15 C         139.8834  143.7042  158.9787 C.3     1  UNL1        0.0771
     16 N         141.1311  144.4754  159.2923 N.3     1  UNL1       -0.2682
     17 C         142.0623  143.9920  160.3643 C.3     1  UNL1        0.1054
     18 C         143.1082  139.7622  164.4852 C.3     1  UNL1        0.1378
     19 C         143.0414  140.4045  165.8391 C.ar    1  UNL1        0.0006
     20 C         142.6662  139.5870  167.0395 C.ar    1  UNL1       -0.0015
     21 C         142.5994  140.2294  168.3934 C.ar    1  UNL1        0.0111
     22 C         142.9077  141.6894  168.5468 C.ar    1  UNL1        0.0577
     23 CL        142.8408  142.3317  169.9006 Cl      1  UNL1       -0.0822
     24 C         143.2828  142.5069  167.3465 C.ar    1  UNL1        0.0111
     25 C         143.3496  141.8645  165.9926 C.ar    1  UNL1       -0.0015
     26 C         141.4477  145.7303  158.5339 C.3     1  UNL1        0.0725
     27 C         140.9604  145.8984  157.1253 C.3     1  UNL1        0.0210
     28 C         141.7445  145.3177  155.9861 C.3     1  UNL1        0.0335
     29 C         141.2571  145.4858  154.5774 C.3     1  UNL1        0.1422
     30 O         139.9857  146.2347  154.3081 O.3     1  UNL1       -0.3538
     31 C         139.2016  146.8155  155.4473 C.3     1  UNL1        0.1422
     32 C         139.6889  146.6474  156.8559 C.3     1  UNL1        0.0335
@<TRIPOS>BOND
     1     1     2    2
     2     2     3   ar
     3     3    18    1
     4    18    19    1
     5    19    20   ar
     6    20    21   ar
     7    21    22   ar
     8    22    23    1
     9    22    24   ar
    10    24    25   ar
    11     3     4   ar
    12     4     5   ar
    13     5     6   ar
    14     6     7   ar
    15     7     8   ar
    16     8     9   ar
    17     9    10   ar
    18    10    11   ar
    19    11    12   ar
    20    12    13   ar
    21     7    14    1
    22    14    15    1
    23    15    16    1
    24    16    26    1
    25    26    27    1
    26    27    28    1
    27    28    29    1
    28    29    30    1
    29    30    31    1
    30    31    32    1
    31    16    17    1
    32    13     2   ar
    33    32    27    1
    34    25    19   ar
    35     8     4   ar
    36    13     9   ar
    37    17     6    1
