@<TRIPOS>MOLECULE
*****
 34 38 0 0 0
SMALL
GASTEIGER

@<TRIPOS>ATOM
      1 N         142.7870  144.3793  163.1870 N.3     1  UNL1       -0.2710
      2 C         141.8372  144.6931  164.3048 C.3     1  UNL1        0.0735
      3 C         140.3841  144.9228  164.0120 C.3     1  UNL1        0.0331
      4 C         139.8808  144.8386  162.6015 C.3     1  UNL1        0.0570
      5 C         140.8307  144.5248  161.4838 C.3     1  UNL1        0.0331
      6 C         142.2837  144.2952  161.7765 C.3     1  UNL1        0.0735
      7 N         138.4277  145.0683  162.3087 N.3     1  UNL1       -0.2934
      8 H         138.3187  145.0108  161.2962 H       1  UNL1        0.1236
      9 C         137.3901  144.1658  162.9079 C.3     1  UNL1        0.1152
     10 C         137.6550  142.6942  163.0275 C.ar    1  UNL1        0.0782
     11 C         137.9327  142.0890  164.3716 C.ar    1  UNL1        0.0562
     12 C         138.1975  140.6175  164.4913 C.ar    1  UNL1        0.1752
     13 C         138.1846  139.7511  163.2669 C.ar    1  UNL1        0.1914
     14 C         137.9068  140.3563  161.9228 C.ar    1  UNL1        0.1384
     15 N         137.6420  141.8279  161.8031 N.ar    1  UNL1       -0.2434
     16 O         138.4494  138.2795  163.3865 O.3     1  UNL1       -0.4668
     17 C         138.7272  137.6743  164.7306 C.3     1  UNL1        0.2527
     18 C         138.7401  138.5407  165.9550 C.3     1  UNL1        0.2526
     19 O         138.4753  140.0123  165.8354 O.3     1  UNL1       -0.4683
     20 C         144.2402  144.1497  163.4799 C.3     1  UNL1        0.0970
     21 C         144.6482  143.4234  164.7273 C.3     1  UNL1        0.1263
     22 C         141.6788  141.8635  167.7272 C.ar    1  UNL1        0.0699
     23 C         141.4397  140.3876  167.8481 C.ar    1  UNL1        0.0104
     24 C         142.1904  139.4318  166.9690 C.ar    1  UNL1        0.0021
     25 C         143.1801  139.9517  165.9690 C.ar    1  UNL1        0.0161
     26 C         143.9308  138.9958  165.0899 C.ar    1  UNL1        0.0063
     27 C         144.9205  139.5158  164.0900 C.ar    1  UNL1        0.0608
     28 C         145.1597  140.9917  163.9691 C.ar    1  UNL1        0.2610
     29 O         146.1495  141.5116  162.9691 O.2     1  UNL1       -0.2670
     30 N         144.4091  141.9476  164.8482 N.ar    1  UNL1       -0.2941
     31 C         143.4193  141.4275  165.8482 C.ar    1  UNL1        0.0631
     32 C         142.6686  142.3834  166.7272 C.ar    1  UNL1        0.0275
     33 N         140.1776  143.7753  169.4854 N.1     1  UNL1       -0.1908
     34 C         140.9282  142.8194  168.6063 C.1     1  UNL1        0.1005
@<TRIPOS>BOND
     1    33    34    3
     2    34    22    1
     3    22    23   ar
     4    23    24   ar
     5    24    25   ar
     6    25    26   ar
     7    26    27   ar
     8    27    28   ar
     9    28    29    2
    10    28    30   ar
    11    30    21    1
    12    21    20    1
    13    20     1    1
    14     1     2    1
    15     2     3    1
    16     3     4    1
    17     4     7    1
    18     7     9    1
    19     9    10    1
    20    10    11   ar
    21    11    12   ar
    22    12    13   ar
    23    13    14   ar
    24    14    15   ar
    25    13    16    1
    26    16    17    1
    27    17    18    1
    28    18    19    1
    29     4     5    1
    30     5     6    1
    31    30    31   ar
    32    31    32   ar
    33    32    22   ar
    34    31    25   ar
    35     6     1    1
    36    15    10   ar
    37    19    12    1
    38     7     8    1
@<TRIPOS>MOLECULE
*****
 34 38 0 0 0
SMALL
GASTEIGER

@<TRIPOS>ATOM
      1 N         137.8835  142.9540  162.9153 N.3     1  UNL1       -0.2710
      2 C         137.6653  141.8196  163.8720 C.3     1  UNL1        0.0735
      3 C         137.6644  140.4057  163.3712 C.3     1  UNL1        0.0331
      4 C         137.8817  140.1263  161.9136 C.3     1  UNL1        0.0570
      5 C         138.0999  141.2608  160.9568 C.3     1  UNL1        0.0331
      6 C         138.1008  142.6746  161.4577 C.3     1  UNL1        0.0735
      7 N         137.8808  138.7124  161.4126 N.3     1  UNL1       -0.2934
      8 H         137.3180  138.7017  160.5620 H       1  UNL1        0.1236
      9 C         139.1767  138.0327  161.0829 C.3     1  UNL1        0.1152
     10 C         140.3715  138.2257  161.9690 C.ar    1  UNL1        0.0782
     11 C         141.4355  139.2123  161.5891 C.ar    1  UNL1        0.0562
     12 C         142.6302  139.4053  162.4752 C.ar    1  UNL1        0.1752
     13 C         142.7611  138.6116  163.7413 C.ar    1  UNL1        0.1914
     14 C         141.6970  137.6249  164.1213 C.ar    1  UNL1        0.1384
     15 N         140.5022  137.4320  163.2351 N.ar    1  UNL1       -0.2434
     16 O         143.9558  138.8046  164.6274 O.3     1  UNL1       -0.4668
     17 C         145.0199  139.7912  164.2475 C.3     1  UNL1        0.2527
     18 C         144.8891  140.5849  162.9814 C.3     1  UNL1        0.2526
     19 O         143.6943  140.3920  162.0952 O.3     1  UNL1       -0.4683
     20 C         137.8844  144.3680  163.4162 C.3     1  UNL1        0.0970
     21 C         138.8826  144.7965  164.4507 C.3     1  UNL1        0.1263
     22 C         140.9104  141.8861  167.2197 C.ar    1  UNL1        0.0699
     23 C         142.3644  141.5658  167.0371 C.ar    1  UNL1        0.0104
     24 C         143.1424  142.2156  165.9314 C.ar    1  UNL1        0.0021
     25 C         142.4665  143.1857  165.0084 C.ar    1  UNL1        0.0161
     26 C         143.2445  143.8356  163.9028 C.ar    1  UNL1        0.0063
     27 C         142.5685  144.8057  162.9798 C.ar    1  UNL1        0.0608
     28 C         141.1145  145.1260  163.1624 C.ar    1  UNL1        0.2610
     29 O         140.4386  146.0961  162.2394 O.2     1  UNL1       -0.2670
     30 N         140.3365  144.4762  164.2681 N.ar    1  UNL1       -0.2941
     31 C         141.0125  143.5060  165.1911 C.ar    1  UNL1        0.0631
     32 C         140.2345  142.8562  166.2967 C.ar    1  UNL1        0.0275
     33 N         139.3544  140.5865  169.4310 N.1     1  UNL1       -0.1908
     34 C         140.1324  141.2363  168.3254 C.1     1  UNL1        0.1005
@<TRIPOS>BOND
     1    33    34    3
     2    34    22    1
     3    22    23   ar
     4    23    24   ar
     5    24    25   ar
     6    25    26   ar
     7    26    27   ar
     8    27    28   ar
     9    28    29    2
    10    28    30   ar
    11    30    21    1
    12    21    20    1
    13    20     1    1
    14     1     2    1
    15     2     3    1
    16     3     4    1
    17     4     7    1
    18     7     9    1
    19     9    10    1
    20    10    11   ar
    21    11    12   ar
    22    12    13   ar
    23    13    14   ar
    24    14    15   ar
    25    13    16    1
    26    16    17    1
    27    17    18    1
    28    18    19    1
    29     4     5    1
    30     5     6    1
    31    30    31   ar
    32    31    32   ar
    33    32    22   ar
    34    31    25   ar
    35     6     1    1
    36    15    10   ar
    37    19    12    1
    38     7     8    1
@<TRIPOS>MOLECULE
*****
 34 38 0 0 0
SMALL
GASTEIGER

@<TRIPOS>ATOM
      1 N         138.1200  140.1558  162.8927 N.3     1  UNL1       -0.2710
      2 C         138.1980  140.8002  161.5405 C.3     1  UNL1        0.0735
      3 C         138.0875  142.2906  161.4124 C.3     1  UNL1        0.0331
      4 C         137.8990  143.1366  162.6366 C.3     1  UNL1        0.0570
      5 C         137.8210  142.4922  163.9889 C.3     1  UNL1        0.0331
      6 C         137.9315  141.0018  164.1169 C.3     1  UNL1        0.0735
      7 N         137.7884  144.6271  162.5085 N.3     1  UNL1       -0.2934
      8 H         137.1874  144.9442  163.2692 H       1  UNL1        0.1236
      9 C         139.0237  145.4770  162.5496 C.3     1  UNL1        0.1152
     10 C         140.3782  144.8344  162.5011 C.ar    1  UNL1        0.0782
     11 C         141.0572  144.4188  163.7724 C.ar    1  UNL1        0.0562
     12 C         142.4117  143.7762  163.7238 C.ar    1  UNL1        0.1752
     13 C         143.0872  143.5491  162.4039 C.ar    1  UNL1        0.1914
     14 C         142.4082  143.9647  161.1326 C.ar    1  UNL1        0.1384
     15 N         141.0537  144.6073  161.1812 N.ar    1  UNL1       -0.2434
     16 O         144.4417  142.9065  162.3553 O.3     1  UNL1       -0.4668
     17 C         145.1207  142.4909  163.6267 C.3     1  UNL1        0.2527
     18 C         144.4452  142.7180  164.9465 C.3     1  UNL1        0.2526
     19 O         143.0907  143.3606  164.9952 O.3     1  UNL1       -0.4683
     20 C         138.2305  138.6653  163.0208 C.3     1  UNL1        0.0970
     21 C         139.0104  138.0656  164.1531 C.3     1  UNL1        0.1263
     22 C         140.4527  139.9734  167.9649 C.ar    1  UNL1        0.0699
     23 C         141.9055  140.3061  168.1341 C.ar    1  UNL1        0.0104
     24 C         142.8776  140.0029  167.0326 C.ar    1  UNL1        0.0021
     25 C         142.3968  139.3670  165.7620 C.ar    1  UNL1        0.0161
     26 C         143.3688  139.0637  164.6606 C.ar    1  UNL1        0.0063
     27 C         142.8881  138.4278  163.3900 C.ar    1  UNL1        0.0608
     28 C         141.4352  138.0951  163.2208 C.ar    1  UNL1        0.2610
     29 O         140.9545  137.4592  161.9502 O.2     1  UNL1       -0.2670
     30 N         140.4632  138.3983  164.3222 N.ar    1  UNL1       -0.2941
     31 C         140.9440  139.0343  165.5929 C.ar    1  UNL1        0.0631
     32 C         139.9720  139.3375  166.6943 C.ar    1  UNL1        0.0275
     33 N         138.5086  140.5798  170.1678 N.1     1  UNL1       -0.1908
     34 C         139.4807  140.2766  169.0664 C.1     1  UNL1        0.1005
@<TRIPOS>BOND
     1    33    34    3
     2    34    22    1
     3    22    23   ar
     4    23    24   ar
     5    24    25   ar
     6    25    26   ar
     7    26    27   ar
     8    27    28   ar
     9    28    29    2
    10    28    30   ar
    11    30    21    1
    12    21    20    1
    13    20     1    1
    14     1     2    1
    15     2     3    1
    16     3     4    1
    17     4     7    1
    18     7     9    1
    19     9    10    1
    20    10    11   ar
    21    11    12   ar
    22    12    13   ar
    23    13    14   ar
    24    14    15   ar
    25    13    16    1
    26    16    17    1
    27    17    18    1
    28    18    19    1
    29     4     5    1
    30     5     6    1
    31    30    31   ar
    32    31    32   ar
    33    32    22   ar
    34    31    25   ar
    35     6     1    1
    36    15    10   ar
    37    19    12    1
    38     7     8    1
@<TRIPOS>MOLECULE
*****
 34 38 0 0 0
SMALL
GASTEIGER

@<TRIPOS>ATOM
      1 N         144.6481  140.4639  163.4932 N.3     1  UNL1       -0.2710
      2 C         144.1786  140.3285  162.0750 C.3     1  UNL1        0.0735
      3 C         143.1885  139.2620  161.7114 C.3     1  UNL1        0.0331
      4 C         142.6680  138.3309  162.7659 C.3     1  UNL1        0.0570
      5 C         143.1375  138.4663  164.1841 C.3     1  UNL1        0.0331
      6 C         144.1276  139.5328  164.5477 C.3     1  UNL1        0.0735
      7 N         141.6779  137.2643  162.4023 N.3     1  UNL1       -0.2934
      8 H         142.1117  136.3697  162.6302 H       1  UNL1        0.1236
      9 C         140.3166  137.2584  163.0323 C.3     1  UNL1        0.1152
     10 C         139.6420  138.5542  163.3726 C.ar    1  UNL1        0.0782
     11 C         139.5171  139.6299  162.3347 C.ar    1  UNL1        0.0562
     12 C         138.8425  140.9256  162.6749 C.ar    1  UNL1        0.1752
     13 C         138.2928  141.1458  164.0532 C.ar    1  UNL1        0.1914
     14 C         138.4177  140.0701  165.0911 C.ar    1  UNL1        0.1384
     15 N         139.0923  138.7742  164.7507 N.ar    1  UNL1       -0.2434
     16 O         137.6182  142.4416  164.3934 O.3     1  UNL1       -0.4668
     17 C         137.4933  143.5173  163.3555 C.3     1  UNL1        0.2527
     18 C         138.0430  143.2972  161.9774 C.3     1  UNL1        0.2526
     19 O         138.7176  142.0014  161.6370 O.3     1  UNL1       -0.4683
     20 C         145.6382  141.5305  163.8568 C.3     1  UNL1        0.0970
     21 C         145.1757  142.7791  164.5475 C.3     1  UNL1        0.1263
     22 C         142.2668  141.7480  167.8224 C.ar    1  UNL1        0.0699
     23 C         140.8337  142.1775  167.7151 C.ar    1  UNL1        0.0104
     24 C         140.3701  142.9507  166.5163 C.ar    1  UNL1        0.0021
     25 C         141.3397  143.2944  165.4246 C.ar    1  UNL1        0.0161
     26 C         140.8762  144.0676  164.2258 C.ar    1  UNL1        0.0063
     27 C         141.8458  144.4113  163.1342 C.ar    1  UNL1        0.0608
     28 C         143.2790  143.9818  163.2414 C.ar    1  UNL1        0.2610
     29 O         144.2486  144.3255  162.1498 O.2     1  UNL1       -0.2670
     30 N         143.7426  143.2086  164.4402 N.ar    1  UNL1       -0.2941
     31 C         142.7729  142.8649  165.5319 C.ar    1  UNL1        0.0631
     32 C         143.2364  142.0917  166.7308 C.ar    1  UNL1        0.0275
     33 N         143.1939  140.2016  170.2201 N.1     1  UNL1       -0.1908
     34 C         142.7304  140.9748  169.0213 C.1     1  UNL1        0.1005
@<TRIPOS>BOND
     1    33    34    3
     2    34    22    1
     3    22    23   ar
     4    23    24   ar
     5    24    25   ar
     6    25    26   ar
     7    26    27   ar
     8    27    28   ar
     9    28    29    2
    10    28    30   ar
    11    30    21    1
    12    21    20    1
    13    20     1    1
    14     1     2    1
    15     2     3    1
    16     3     4    1
    17     4     7    1
    18     7     9    1
    19     9    10    1
    20    10    11   ar
    21    11    12   ar
    22    12    13   ar
    23    13    14   ar
    24    14    15   ar
    25    13    16    1
    26    16    17    1
    27    17    18    1
    28    18    19    1
    29     4     5    1
    30     5     6    1
    31    30    31   ar
    32    31    32   ar
    33    32    22   ar
    34    31    25   ar
    35     6     1    1
    36    15    10   ar
    37    19    12    1
    38     7     8    1
@<TRIPOS>MOLECULE
*****
 34 38 0 0 0
SMALL
GASTEIGER

@<TRIPOS>ATOM
      1 N         141.8558  138.2321  164.0661 N.3     1  UNL1       -0.2710
      2 C         142.7499  138.7472  165.1548 C.3     1  UNL1        0.0735
      3 C         143.9893  139.5167  164.8062 C.3     1  UNL1        0.0331
      4 C         144.3347  139.7711  163.3689 C.3     1  UNL1        0.0570
      5 C         143.4407  139.2561  162.2802 C.3     1  UNL1        0.0331
      6 C         142.2012  138.4866  162.6288 C.3     1  UNL1        0.0735
      7 N         145.5742  140.5407  163.0203 N.3     1  UNL1       -0.2934
      8 H         145.7013  140.4533  162.0120 H       1  UNL1        0.1236
      9 C         145.6649  142.0028  163.3430 C.3     1  UNL1        0.1152
     10 C         144.4678  142.8873  163.1577 C.ar    1  UNL1        0.0782
     11 C         143.9374  143.1528  161.7800 C.ar    1  UNL1        0.0562
     12 C         142.7403  144.0374  161.5947 C.ar    1  UNL1        0.1752
     13 C         142.0735  144.6566  162.7872 C.ar    1  UNL1        0.1914
     14 C         142.6038  144.3911  164.1650 C.ar    1  UNL1        0.1384
     15 N         143.8010  143.5064  164.3502 N.ar    1  UNL1       -0.2434
     16 O         140.8764  145.5411  162.6019 O.3     1  UNL1       -0.4668
     17 C         140.3460  145.8066  161.2242 C.3     1  UNL1        0.2527
     18 C         141.0128  145.1875  160.0317 C.3     1  UNL1        0.2526
     19 O         142.2100  144.3029  160.2169 O.3     1  UNL1       -0.4683
     20 C         140.6163  137.4626  164.4147 C.3     1  UNL1        0.0970
     21 C         139.3819  138.1900  164.8585 C.3     1  UNL1        0.1263
     22 C         140.0564  142.3195  166.5145 C.ar    1  UNL1        0.0699
     23 C         139.5788  143.5202  165.7529 C.ar    1  UNL1        0.0104
     24 C         138.8763  143.3444  164.4392 C.ar    1  UNL1        0.0021
     25 C         138.6515  141.9680  163.8872 C.ar    1  UNL1        0.0161
     26 C         137.9490  141.7922  162.5736 C.ar    1  UNL1        0.0063
     27 C         137.7242  140.4158  162.0216 C.ar    1  UNL1        0.0608
     28 C         138.2018  139.2150  162.7833 C.ar    1  UNL1        0.2610
     29 O         137.9769  137.8385  162.2313 O.2     1  UNL1       -0.2670
     30 N         138.9043  139.3907  164.0969 N.ar    1  UNL1       -0.2941
     31 C         139.1291  140.7673  164.6489 C.ar    1  UNL1        0.0631
     32 C         139.8316  140.9430  165.9625 C.ar    1  UNL1        0.0275
     33 N         141.4614  142.6710  169.1418 N.1     1  UNL1       -0.1908
     34 C         140.7589  142.4953  167.8282 C.1     1  UNL1        0.1005
@<TRIPOS>BOND
     1    33    34    3
     2    34    22    1
     3    22    23   ar
     4    23    24   ar
     5    24    25   ar
     6    25    26   ar
     7    26    27   ar
     8    27    28   ar
     9    28    29    2
    10    28    30   ar
    11    30    21    1
    12    21    20    1
    13    20     1    1
    14     1     2    1
    15     2     3    1
    16     3     4    1
    17     4     7    1
    18     7     9    1
    19     9    10    1
    20    10    11   ar
    21    11    12   ar
    22    12    13   ar
    23    13    14   ar
    24    14    15   ar
    25    13    16    1
    26    16    17    1
    27    17    18    1
    28    18    19    1
    29     4     5    1
    30     5     6    1
    31    30    31   ar
    32    31    32   ar
    33    32    22   ar
    34    31    25   ar
    35     6     1    1
    36    15    10   ar
    37    19    12    1
    38     7     8    1
@<TRIPOS>MOLECULE
*****
 34 38 0 0 0
SMALL
GASTEIGER

@<TRIPOS>ATOM
      1 N         140.7007  144.6850  163.1586 N.3     1  UNL1       -0.2710
      2 C         141.8414  144.7076  164.1323 C.3     1  UNL1        0.0735
      3 C         143.2185  144.3179  163.6833 C.3     1  UNL1        0.0331
      4 C         143.4549  143.9056  162.2606 C.3     1  UNL1        0.0570
      5 C         142.3141  143.8830  161.2869 C.3     1  UNL1        0.0331
      6 C         140.9370  144.2727  161.7359 C.3     1  UNL1        0.0735
      7 N         144.8321  143.5159  161.8116 N.3     1  UNL1       -0.2934
      8 H         145.4865  143.9312  162.4747 H       1  UNL1        0.1236
      9 C         145.1994  142.0666  161.6907 C.3     1  UNL1        0.1152
     10 C         144.4917  141.0413  162.5261 C.ar    1  UNL1        0.0782
     11 C         143.3831  140.2246  161.9312 C.ar    1  UNL1        0.0562
     12 C         142.6754  139.1993  162.7665 C.ar    1  UNL1        0.1752
     13 C         143.0763  138.9907  164.1969 C.ar    1  UNL1        0.1914
     14 C         144.1850  139.8074  164.7918 C.ar    1  UNL1        0.1384
     15 N         144.8927  140.8328  163.9563 N.ar    1  UNL1       -0.2434
     16 O         142.3687  137.9654  165.0322 O.3     1  UNL1       -0.4668
     17 C         141.2601  137.1486  164.4373 C.3     1  UNL1        0.2527
     18 C         140.8591  137.3572  163.0071 C.3     1  UNL1        0.2526
     19 O         141.5668  138.3825  162.1716 O.3     1  UNL1       -0.4683
     20 C         139.3235  145.0748  163.6076 C.3     1  UNL1        0.0970
     21 C         138.6560  144.3214  164.7198 C.3     1  UNL1        0.1263
     22 C         140.6453  142.0602  168.0634 C.ar    1  UNL1        0.0699
     23 C         140.6448  140.5602  168.0586 C.ar    1  UNL1        0.0104
     24 C         139.9813  139.8140  166.9393 C.ar    1  UNL1        0.0021
     25 C         139.3183  140.5677  165.8248 C.ar    1  UNL1        0.0161
     26 C         138.6548  139.8214  164.7055 C.ar    1  UNL1        0.0063
     27 C         137.9917  140.5751  163.5909 C.ar    1  UNL1        0.0608
     28 C         137.9921  142.0752  163.5957 C.ar    1  UNL1        0.2610
     29 O         137.3290  142.8289  162.4811 O.2     1  UNL1       -0.2670
     30 N         138.6556  142.8214  164.7150 N.ar    1  UNL1       -0.2941
     31 C         139.3187  142.0676  165.8296 C.ar    1  UNL1        0.0631
     32 C         139.9822  142.8139  166.9489 C.ar    1  UNL1        0.0275
     33 N         141.9723  143.5527  170.3020 N.1     1  UNL1       -0.1908
     34 C         141.3088  142.8065  169.1827 C.1     1  UNL1        0.1005
@<TRIPOS>BOND
     1    33    34    3
     2    34    22    1
     3    22    23   ar
     4    23    24   ar
     5    24    25   ar
     6    25    26   ar
     7    26    27   ar
     8    27    28   ar
     9    28    29    2
    10    28    30   ar
    11    30    21    1
    12    21    20    1
    13    20     1    1
    14     1     2    1
    15     2     3    1
    16     3     4    1
    17     4     7    1
    18     7     9    1
    19     9    10    1
    20    10    11   ar
    21    11    12   ar
    22    12    13   ar
    23    13    14   ar
    24    14    15   ar
    25    13    16    1
    26    16    17    1
    27    17    18    1
    28    18    19    1
    29     4     5    1
    30     5     6    1
    31    30    31   ar
    32    31    32   ar
    33    32    22   ar
    34    31    25   ar
    35     6     1    1
    36    15    10   ar
    37    19    12    1
    38     7     8    1
@<TRIPOS>MOLECULE
*****
 34 38 0 0 0
SMALL
GASTEIGER

@<TRIPOS>ATOM
      1 N         143.0123  144.1692  162.1914 N.3     1  UNL1       -0.2710
      2 C         142.4212  145.0400  163.2601 C.3     1  UNL1        0.0735
      3 C         140.9552  145.3572  163.2435 C.3     1  UNL1        0.0331
      4 C         140.0804  144.8036  162.1581 C.3     1  UNL1        0.0570
      5 C         140.6715  143.9327  161.0894 C.3     1  UNL1        0.0331
      6 C         142.1374  143.6155  161.1060 C.3     1  UNL1        0.0735
      7 N         138.6143  145.1207  162.1415 N.3     1  UNL1       -0.2934
      8 H         138.2912  144.9694  161.1860 H       1  UNL1        0.1236
      9 C         137.6748  144.3724  163.0400 C.3     1  UNL1        0.1152
     10 C         137.8480  142.8965  163.2439 C.ar    1  UNL1        0.0782
     11 C         138.2696  142.3687  164.5832 C.ar    1  UNL1        0.0562
     12 C         138.4427  140.8928  164.7870 C.ar    1  UNL1        0.1752
     13 C         138.1943  139.9445  163.6516 C.ar    1  UNL1        0.1914
     14 C         137.7727  140.4723  162.3123 C.ar    1  UNL1        0.1384
     15 N         137.5996  141.9483  162.1085 N.ar    1  UNL1       -0.2434
     16 O         138.3674  138.4686  163.8554 O.3     1  UNL1       -0.4668
     17 C         138.7890  137.9408  165.1947 C.3     1  UNL1        0.2527
     18 C         139.0375  138.8890  166.3302 C.3     1  UNL1        0.2526
     19 O         138.8643  140.3650  166.1263 O.3     1  UNL1       -0.4683
     20 C         144.4783  143.8520  162.2080 C.3     1  UNL1        0.0970
     21 C         144.9513  142.5176  162.7036 C.3     1  UNL1        0.1263
     22 C         142.8447  138.7332  161.4827 C.ar    1  UNL1        0.0699
     23 C         142.0279  137.9728  162.4850 C.ar    1  UNL1        0.0104
     24 C         141.9132  138.4738  163.8942 C.ar    1  UNL1        0.0021
     25 C         142.6154  139.7352  164.3011 C.ar    1  UNL1        0.0161
     26 C         142.5008  140.2363  165.7103 C.ar    1  UNL1        0.0063
     27 C         143.2030  141.4977  166.1173 C.ar    1  UNL1        0.0608
     28 C         144.0199  142.2582  165.1150 C.ar    1  UNL1        0.2610
     29 O         144.7221  143.5196  165.5220 O.2     1  UNL1       -0.2670
     30 N         144.1345  141.7572  163.7058 N.ar    1  UNL1       -0.2941
     31 C         143.4323  140.4957  163.2989 C.ar    1  UNL1        0.0631
     32 C         143.5469  139.9946  161.8897 C.ar    1  UNL1        0.0275
     33 N         143.0739  137.7312  158.6643 N.1     1  UNL1       -0.1908
     34 C         142.9593  138.2322  160.0735 C.1     1  UNL1        0.1005
@<TRIPOS>BOND
     1    33    34    3
     2    34    22    1
     3    22    23   ar
     4    23    24   ar
     5    24    25   ar
     6    25    26   ar
     7    26    27   ar
     8    27    28   ar
     9    28    29    2
    10    28    30   ar
    11    30    21    1
    12    21    20    1
    13    20     1    1
    14     1     2    1
    15     2     3    1
    16     3     4    1
    17     4     7    1
    18     7     9    1
    19     9    10    1
    20    10    11   ar
    21    11    12   ar
    22    12    13   ar
    23    13    14   ar
    24    14    15   ar
    25    13    16    1
    26    16    17    1
    27    17    18    1
    28    18    19    1
    29     4     5    1
    30     5     6    1
    31    30    31   ar
    32    31    32   ar
    33    32    22   ar
    34    31    25   ar
    35     6     1    1
    36    15    10   ar
    37    19    12    1
    38     7     8    1
@<TRIPOS>MOLECULE
*****
 34 38 0 0 0
SMALL
GASTEIGER

@<TRIPOS>ATOM
      1 N         139.7602  138.2654  164.2575 N.3     1  UNL1       -0.2710
      2 C         139.1210  139.1384  165.2965 C.3     1  UNL1        0.0735
      3 C         138.1927  140.2411  164.8816 C.3     1  UNL1        0.0331
      4 C         137.9036  140.4709  163.4278 C.3     1  UNL1        0.0570
      5 C         138.5429  139.5980  162.3889 C.3     1  UNL1        0.0331
      6 C         139.4712  138.4953  162.8037 C.3     1  UNL1        0.0735
      7 N         136.9753  141.5737  163.0128 N.3     1  UNL1       -0.2934
      8 H         136.1923  141.5611  163.6665 H       1  UNL1        0.1236
      9 C         137.4696  142.9888  162.9566 C.3     1  UNL1        0.1152
     10 C         138.9031  143.2695  162.6156 C.ar    1  UNL1        0.0782
     11 C         139.8013  143.9183  163.6267 C.ar    1  UNL1        0.0562
     12 C         141.2348  144.1990  163.2857 C.ar    1  UNL1        0.1752
     13 C         141.7701  143.8310  161.9336 C.ar    1  UNL1        0.1914
     14 C         140.8718  143.1822  160.9226 C.ar    1  UNL1        0.1384
     15 N         139.4383  142.9015  161.2636 N.ar    1  UNL1       -0.2434
     16 O         143.2035  144.1117  161.5927 O.3     1  UNL1       -0.4668
     17 C         144.1018  144.7605  162.6037 C.3     1  UNL1        0.2527
     18 C         143.5666  145.1285  163.9557 C.3     1  UNL1        0.2526
     19 O         142.1330  144.8478  164.2968 O.3     1  UNL1       -0.4683
     20 C         140.6886  137.1627  164.6725 C.3     1  UNL1        0.0970
     21 C         142.1066  137.4772  165.0472 C.3     1  UNL1        0.1263
     22 C         142.2655  140.8025  168.0749 C.ar    1  UNL1        0.0699
     23 C         142.8633  142.1271  167.7034 C.ar    1  UNL1        0.0104
     24 C         143.4080  142.3433  166.3226 C.ar    1  UNL1        0.0021
     25 C         143.3550  141.2349  165.3134 C.ar    1  UNL1        0.0161
     26 C         143.8998  141.4511  163.9326 C.ar    1  UNL1        0.0063
     27 C         143.8468  140.3427  162.9234 C.ar    1  UNL1        0.0608
     28 C         143.2491  139.0180  163.2949 C.ar    1  UNL1        0.2610
     29 O         143.1961  137.9096  162.2857 O.2     1  UNL1       -0.2670
     30 N         142.7043  138.8018  164.6756 N.ar    1  UNL1       -0.2941
     31 C         142.7573  139.9103  165.6849 C.ar    1  UNL1        0.0631
     32 C         142.2125  139.6941  167.0657 C.ar    1  UNL1        0.0275
     33 N         141.1760  140.3701  170.8364 N.1     1  UNL1       -0.1908
     34 C         141.7208  140.5863  169.4557 C.1     1  UNL1        0.1005
@<TRIPOS>BOND
     1    33    34    3
     2    34    22    1
     3    22    23   ar
     4    23    24   ar
     5    24    25   ar
     6    25    26   ar
     7    26    27   ar
     8    27    28   ar
     9    28    29    2
    10    28    30   ar
    11    30    21    1
    12    21    20    1
    13    20     1    1
    14     1     2    1
    15     2     3    1
    16     3     4    1
    17     4     7    1
    18     7     9    1
    19     9    10    1
    20    10    11   ar
    21    11    12   ar
    22    12    13   ar
    23    13    14   ar
    24    14    15   ar
    25    13    16    1
    26    16    17    1
    27    17    18    1
    28    18    19    1
    29     4     5    1
    30     5     6    1
    31    30    31   ar
    32    31    32   ar
    33    32    22   ar
    34    31    25   ar
    35     6     1    1
    36    15    10   ar
    37    19    12    1
    38     7     8    1
@<TRIPOS>MOLECULE
*****
 34 38 0 0 0
SMALL
GASTEIGER

@<TRIPOS>ATOM
      1 N         138.3109  140.1401  163.8277 N.3     1  UNL1       -0.2710
      2 C         138.2151  140.4440  162.3619 C.3     1  UNL1        0.0735
      3 C         137.9944  141.8543  161.9011 C.3     1  UNL1        0.0331
      4 C         137.8694  142.9607  162.9062 C.3     1  UNL1        0.0570
      5 C         137.9652  142.6569  164.3719 C.3     1  UNL1        0.0331
      6 C         138.1860  141.2466  164.8327 C.3     1  UNL1        0.0735
      7 N         137.6487  144.3711  162.4454 N.3     1  UNL1       -0.2934
      8 H         136.9099  144.7600  163.0313 H       1  UNL1        0.1236
      9 C         138.7819  145.3536  162.4683 C.3     1  UNL1        0.1152
     10 C         140.1993  144.8647  162.4265 C.ar    1  UNL1        0.0782
     11 C         140.7175  144.1705  161.2019 C.ar    1  UNL1        0.0562
     12 C         142.1349  143.6817  161.1601 C.ar    1  UNL1        0.1752
     13 C         143.0343  143.8870  162.3429 C.ar    1  UNL1        0.1914
     14 C         142.5162  144.5812  163.5675 C.ar    1  UNL1        0.1384
     15 N         141.0987  145.0701  163.6093 N.ar    1  UNL1       -0.2434
     16 O         144.4518  143.3982  162.3011 O.3     1  UNL1       -0.4668
     17 C         144.9699  142.7039  161.0765 C.3     1  UNL1        0.2527
     18 C         144.0706  142.4986  159.8937 C.3     1  UNL1        0.2526
     19 O         142.6530  142.9875  159.9355 O.3     1  UNL1       -0.4683
     20 C         138.5316  138.7298  164.2884 C.3     1  UNL1        0.0970
     21 C         139.7864  138.3699  165.0273 C.3     1  UNL1        0.1263
     22 C         141.8925  141.8253  166.9956 C.ar    1  UNL1        0.0699
     23 C         143.2243  142.2840  166.4800 C.ar    1  UNL1        0.0104
     24 C         143.8541  141.5908  165.3083 C.ar    1  UNL1        0.0021
     25 C         143.1521  140.4390  164.6522 C.ar    1  UNL1        0.0161
     26 C         143.7819  139.7459  163.4805 C.ar    1  UNL1        0.0063
     27 C         143.0798  138.5941  162.8244 C.ar    1  UNL1        0.0608
     28 C         141.7480  138.1354  163.3400 C.ar    1  UNL1        0.2610
     29 O         141.0459  136.9836  162.6839 O.2     1  UNL1       -0.2670
     30 N         141.1182  138.8285  164.5117 N.ar    1  UNL1       -0.2941
     31 C         141.8203  139.9804  165.1678 C.ar    1  UNL1        0.0631
     32 C         141.1905  140.6735  166.3395 C.ar    1  UNL1        0.0275
     33 N         140.6330  143.2116  169.3391 N.1     1  UNL1       -0.1908
     34 C         141.2627  142.5185  168.1674 C.1     1  UNL1        0.1005
@<TRIPOS>BOND
     1    33    34    3
     2    34    22    1
     3    22    23   ar
     4    23    24   ar
     5    24    25   ar
     6    25    26   ar
     7    26    27   ar
     8    27    28   ar
     9    28    29    2
    10    28    30   ar
    11    30    21    1
    12    21    20    1
    13    20     1    1
    14     1     2    1
    15     2     3    1
    16     3     4    1
    17     4     7    1
    18     7     9    1
    19     9    10    1
    20    10    11   ar
    21    11    12   ar
    22    12    13   ar
    23    13    14   ar
    24    14    15   ar
    25    13    16    1
    26    16    17    1
    27    17    18    1
    28    18    19    1
    29     4     5    1
    30     5     6    1
    31    30    31   ar
    32    31    32   ar
    33    32    22   ar
    34    31    25   ar
    35     6     1    1
    36    15    10   ar
    37    19    12    1
    38     7     8    1
