@<TRIPOS>MOLECULE
*****
 31 35 0 0 0
SMALL
GASTEIGER

@<TRIPOS>ATOM
      1 C         139.2011  140.6163  164.5059 C.ar    1  UNL1       -0.0175
      2 C         139.5192  139.6242  163.4269 C.ar    1  UNL1        0.0023
      3 C         139.9627  140.1018  162.0759 C.ar    1  UNL1        0.0736
      4 C         140.2808  139.1095  160.9968 C.ar    1  UNL1        0.2634
      5 O         140.1554  137.6398  161.2687 O.2     1  UNL1       -0.2669
      6 N         140.7243  139.5872  159.6458 N.ar    1  UNL1       -0.2777
      7 C         140.8496  141.0570  159.3739 C.ar    1  UNL1        0.1808
      8 N         140.5316  142.0492  160.4529 N.ar    1  UNL1       -0.2252
      9 C         140.0881  141.5715  161.8039 C.ar    1  UNL1        0.0875
     10 C         139.7700  142.5638  162.8830 C.ar    1  UNL1        0.0176
     11 C         139.8954  144.0336  162.6111 C.ar    1  UNL1        0.0015
     12 C         139.5773  145.0257  163.6901 C.ar    1  UNL1        0.0000
     13 C         139.1338  144.5481  165.0411 C.ar    1  UNL1       -0.0000
     14 C         139.0084  143.0783  165.3131 C.ar    1  UNL1       -0.0003
     15 C         139.3265  142.0862  164.2340 C.ar    1  UNL1       -0.0022
     16 C         141.0423  138.5950  158.5667 C.3     1  UNL1        0.1166
     17 C         139.9748  138.1653  157.6047 C.3     1  UNL1        0.0252
     18 C         140.2928  137.1731  156.5255 C.3     1  UNL1        0.0021
     19 C         141.6785  136.6107  156.4085 C.3     1  UNL1        0.0026
     20 C         142.7461  137.0405  157.3706 C.3     1  UNL1        0.0312
     21 C         142.4280  138.0326  158.4497 C.3     1  UNL1        0.1312
     22 O         143.4955  138.4624  159.4117 O.3     1  UNL1       -0.3825
     23 H         144.3254  138.0078  159.1981 H       1  UNL1        0.2104
     24 C         138.7576  140.1387  165.8569 C.3     1  UNL1        0.0542
     25 C         142.7553  139.5509  170.2923 C.3     1  UNL1        0.0521
     26 C         141.7559  139.6978  169.1835 C.ar    1  UNL1        0.0594
     27 C         142.2164  139.7136  167.7561 C.ar    1  UNL1        0.0144
     28 C         141.2169  139.8605  166.6471 C.ar    1  UNL1       -0.0012
     29 C         139.7571  139.9917  166.9658 C.ar    1  UNL1        0.0013
     30 C         139.2966  139.9760  168.3933 C.ar    1  UNL1        0.0945
     31 N         140.2960  139.8290  169.5021 N.ar    1  UNL1       -0.2485
@<TRIPOS>BOND
     1    25    26    1
     2    26    27   ar
     3    27    28   ar
     4    28    29   ar
     5    29    24    1
     6    24     1    1
     7     1     2   ar
     8     2     3   ar
     9     3     4   ar
    10     4     5    2
    11     4     6   ar
    12    16     6    1
    13    16    17    1
    14    17    18    1
    15    18    19    1
    16    19    20    1
    17    20    21    1
    18    21    22    1
    19     6     7   ar
    20     7     8   ar
    21     8     9   ar
    22     9    10   ar
    23    10    11   ar
    24    11    12   ar
    25    12    13   ar
    26    13    14   ar
    27    14    15   ar
    28    29    30   ar
    29    30    31   ar
    30    31    26   ar
    31    15     1   ar
    32     9     3   ar
    33    15    10   ar
    34    21    16    1
    35    22    23    1
@<TRIPOS>MOLECULE
*****
 31 35 0 0 0
SMALL
GASTEIGER

@<TRIPOS>ATOM
      1 C         143.1133  139.9427  164.6169 C.ar    1  UNL1       -0.0175
      2 C         142.6885  139.0703  163.4730 C.ar    1  UNL1        0.0023
      3 C         142.5877  139.6429  162.0903 C.ar    1  UNL1        0.0736
      4 C         142.1628  138.7704  160.9464 C.ar    1  UNL1        0.2634
      5 O         141.8388  137.3255  161.1853 O.2     1  UNL1       -0.2669
      6 N         142.0621  139.3429  159.5636 N.ar    1  UNL1       -0.2777
      7 C         142.3861  140.7880  159.3248 C.ar    1  UNL1        0.1808
      8 N         142.8109  141.6603  160.4686 N.ar    1  UNL1       -0.2252
      9 C         142.9117  141.0878  161.8514 C.ar    1  UNL1        0.0875
     10 C         143.3366  141.9603  162.9952 C.ar    1  UNL1        0.0176
     11 C         143.6606  143.4052  162.7563 C.ar    1  UNL1        0.0015
     12 C         144.0854  144.2776  163.9002 C.ar    1  UNL1        0.0000
     13 C         144.1862  143.7050  165.2829 C.ar    1  UNL1       -0.0000
     14 C         143.8622  142.2601  165.5218 C.ar    1  UNL1       -0.0003
     15 C         143.4373  141.3877  164.3780 C.ar    1  UNL1       -0.0022
     16 C         141.6372  138.4706  158.4198 C.3     1  UNL1        0.1166
     17 C         142.6521  137.6370  157.6952 C.3     1  UNL1        0.0252
     18 C         142.2273  136.7645  156.5513 C.3     1  UNL1        0.0021
     19 C         140.7876  136.7257  156.1320 C.3     1  UNL1        0.0026
     20 C         139.7727  137.5594  156.8567 C.3     1  UNL1        0.0312
     21 C         140.1975  138.4317  158.0006 C.3     1  UNL1        0.1312
     22 O         139.1826  139.2653  158.7252 O.3     1  UNL1       -0.3825
     23 H         138.3076  139.1242  158.3312 H       1  UNL1        0.2104
     24 C         143.2141  139.3702  165.9997 C.3     1  UNL1        0.0542
     25 C         138.8404  140.3649  169.9848 C.3     1  UNL1        0.0521
     26 C         139.9338  140.1162  168.9885 C.ar    1  UNL1        0.0594
     27 C         139.6239  140.1095  167.5209 C.ar    1  UNL1        0.0144
     28 C         140.7174  139.8608  166.5246 C.ar    1  UNL1       -0.0012
     29 C         142.1207  139.6188  166.9959 C.ar    1  UNL1        0.0013
     30 C         142.4306  139.6256  168.4636 C.ar    1  UNL1        0.0945
     31 N         141.3372  139.8743  169.4598 N.ar    1  UNL1       -0.2485
@<TRIPOS>BOND
     1    25    26    1
     2    26    27   ar
     3    27    28   ar
     4    28    29   ar
     5    29    24    1
     6    24     1    1
     7     1     2   ar
     8     2     3   ar
     9     3     4   ar
    10     4     5    2
    11     4     6   ar
    12    16     6    1
    13    16    17    1
    14    17    18    1
    15    18    19    1
    16    19    20    1
    17    20    21    1
    18    21    22    1
    19     6     7   ar
    20     7     8   ar
    21     8     9   ar
    22     9    10   ar
    23    10    11   ar
    24    11    12   ar
    25    12    13   ar
    26    13    14   ar
    27    14    15   ar
    28    29    30   ar
    29    30    31   ar
    30    31    26   ar
    31    15     1   ar
    32     9     3   ar
    33    15    10   ar
    34    21    16    1
    35    22    23    1
@<TRIPOS>MOLECULE
*****
 31 35 0 0 0
SMALL
GASTEIGER

@<TRIPOS>ATOM
      1 C         140.7148  140.3188  164.5037 C.ar    1  UNL1       -0.0175
      2 C         140.1608  141.1264  163.3676 C.ar    1  UNL1        0.0023
      3 C         141.0541  141.5401  162.2358 C.ar    1  UNL1        0.0736
      4 C         140.5000  142.3477  161.0997 C.ar    1  UNL1        0.2634
      5 O         139.0527  142.7416  161.0953 O.2     1  UNL1       -0.2669
      6 N         141.3933  142.7614  159.9679 N.ar    1  UNL1       -0.2777
      7 C         142.8407  142.3675  159.9723 C.ar    1  UNL1        0.1808
      8 N         143.3947  141.5599  161.1085 N.ar    1  UNL1       -0.2252
      9 C         142.5014  141.1462  162.2402 C.ar    1  UNL1        0.0875
     10 C         143.0555  140.3385  163.3764 C.ar    1  UNL1        0.0176
     11 C         144.5028  139.9446  163.3807 C.ar    1  UNL1        0.0015
     12 C         145.0569  139.1370  164.5168 C.ar    1  UNL1        0.0000
     13 C         144.1636  138.7233  165.6486 C.ar    1  UNL1       -0.0000
     14 C         142.7162  139.1172  165.6442 C.ar    1  UNL1       -0.0003
     15 C         142.1622  139.9248  164.5081 C.ar    1  UNL1       -0.0022
     16 C         140.8393  143.5690  158.8318 C.3     1  UNL1        0.1166
     17 C         140.1447  142.8832  157.6929 C.3     1  UNL1        0.0252
     18 C         139.5907  143.6908  156.5567 C.3     1  UNL1        0.0021
     19 C         139.7313  145.1842  156.5595 C.3     1  UNL1        0.0026
     20 C         140.4259  145.8700  157.6985 C.3     1  UNL1        0.0312
     21 C         140.9799  145.0624  158.8346 C.3     1  UNL1        0.1312
     22 O         141.6745  145.7482  159.9735 O.3     1  UNL1       -0.3825
     23 H         141.6787  146.7060  159.8201 H       1  UNL1        0.2104
     24 C         139.8215  139.9051  165.6354 C.3     1  UNL1        0.0542
     25 C         140.0266  142.8595  170.8536 C.3     1  UNL1        0.0521
     26 C         139.9754  142.1209  169.5491 C.ar    1  UNL1        0.0594
     27 C         140.4663  142.7800  168.2943 C.ar    1  UNL1        0.0144
     28 C         140.4150  142.0413  166.9897 C.ar    1  UNL1       -0.0012
     29 C         139.8728  140.6437  166.9400 C.ar    1  UNL1        0.0013
     30 C         139.3818  139.9846  168.1948 C.ar    1  UNL1        0.0945
     31 N         139.4331  140.7232  169.4993 N.ar    1  UNL1       -0.2485
@<TRIPOS>BOND
     1    25    26    1
     2    26    27   ar
     3    27    28   ar
     4    28    29   ar
     5    29    24    1
     6    24     1    1
     7     1     2   ar
     8     2     3   ar
     9     3     4   ar
    10     4     5    2
    11     4     6   ar
    12    16     6    1
    13    16    17    1
    14    17    18    1
    15    18    19    1
    16    19    20    1
    17    20    21    1
    18    21    22    1
    19     6     7   ar
    20     7     8   ar
    21     8     9   ar
    22     9    10   ar
    23    10    11   ar
    24    11    12   ar
    25    12    13   ar
    26    13    14   ar
    27    14    15   ar
    28    29    30   ar
    29    30    31   ar
    30    31    26   ar
    31    15     1   ar
    32     9     3   ar
    33    15    10   ar
    34    21    16    1
    35    22    23    1
@<TRIPOS>MOLECULE
*****
 31 35 0 0 0
SMALL
GASTEIGER

@<TRIPOS>ATOM
      1 C         142.8630  141.3367  164.2957 C.ar    1  UNL1       -0.0175
      2 C         142.8069  142.3803  163.2197 C.ar    1  UNL1        0.0023
      3 C         142.1694  142.0629  161.8996 C.ar    1  UNL1        0.0736
      4 C         142.1134  143.1066  160.8236 C.ar    1  UNL1        0.2634
      5 O         142.6949  144.4675  161.0678 O.2     1  UNL1       -0.2669
      6 N         141.4759  142.7893  159.5034 N.ar    1  UNL1       -0.2777
      7 C         140.8943  141.4283  159.2592 C.ar    1  UNL1        0.1808
      8 N         140.9503  140.3847  160.3352 N.ar    1  UNL1       -0.2252
      9 C         141.5879  140.7020  161.6554 C.ar    1  UNL1        0.0875
     10 C         141.6439  139.6583  162.7314 C.ar    1  UNL1        0.0176
     11 C         141.0624  138.2974  162.4872 C.ar    1  UNL1        0.0015
     12 C         141.1184  137.2538  163.5631 C.ar    1  UNL1        0.0000
     13 C         141.7559  137.5712  164.8833 C.ar    1  UNL1       -0.0000
     14 C         142.3375  138.9321  165.1275 C.ar    1  UNL1       -0.0003
     15 C         142.2814  139.9757  164.0515 C.ar    1  UNL1       -0.0022
     16 C         141.4198  143.8329  158.4274 C.3     1  UNL1        0.1166
     17 C         142.2269  143.6624  157.1746 C.3     1  UNL1        0.0252
     18 C         142.1709  144.7060  156.0986 C.3     1  UNL1        0.0021
     19 C         141.3078  145.9200  156.2754 C.3     1  UNL1        0.0026
     20 C         140.5007  146.0905  157.5283 C.3     1  UNL1        0.0312
     21 C         140.5568  145.0469  158.6043 C.3     1  UNL1        0.1312
     22 O         139.7497  145.2173  159.8571 O.3     1  UNL1       -0.3825
     23 H         139.2523  146.0487  159.8106 H       1  UNL1        0.2104
     24 C         143.5005  141.6540  165.6159 C.3     1  UNL1        0.0542
     25 C         140.1078  143.4218  170.2380 C.3     1  UNL1        0.0521
     26 C         140.9560  142.9799  169.0825 C.ar    1  UNL1        0.0594
     27 C         142.4007  142.6399  169.2994 C.ar    1  UNL1        0.0144
     28 C         143.2489  142.1979  168.1439 C.ar    1  UNL1       -0.0012
     29 C         142.6524  142.0960  166.7714 C.ar    1  UNL1        0.0013
     30 C         141.2076  142.4360  166.5545 C.ar    1  UNL1        0.0945
     31 N         140.3594  142.8780  167.7100 N.ar    1  UNL1       -0.2485
@<TRIPOS>BOND
     1    25    26    1
     2    26    27   ar
     3    27    28   ar
     4    28    29   ar
     5    29    24    1
     6    24     1    1
     7     1     2   ar
     8     2     3   ar
     9     3     4   ar
    10     4     5    2
    11     4     6   ar
    12    16     6    1
    13    16    17    1
    14    17    18    1
    15    18    19    1
    16    19    20    1
    17    20    21    1
    18    21    22    1
    19     6     7   ar
    20     7     8   ar
    21     8     9   ar
    22     9    10   ar
    23    10    11   ar
    24    11    12   ar
    25    12    13   ar
    26    13    14   ar
    27    14    15   ar
    28    29    30   ar
    29    30    31   ar
    30    31    26   ar
    31    15     1   ar
    32     9     3   ar
    33    15    10   ar
    34    21    16    1
    35    22    23    1
@<TRIPOS>MOLECULE
*****
 31 35 0 0 0
SMALL
GASTEIGER

@<TRIPOS>ATOM
      1 C         139.8991  141.4179  164.8251 C.ar    1  UNL1       -0.0175
      2 C         140.5084  141.7170  163.4875 C.ar    1  UNL1        0.0023
      3 C         140.5583  140.6531  162.4313 C.ar    1  UNL1        0.0736
      4 C         141.1676  140.9522  161.0936 C.ar    1  UNL1        0.2634
      5 O         141.7269  142.3153  160.8121 O.2     1  UNL1       -0.2669
      6 N         141.2176  139.8883  160.0374 N.ar    1  UNL1       -0.2777
      7 C         140.6583  138.5252  160.3189 C.ar    1  UNL1        0.1808
      8 N         140.0490  138.2261  161.6566 N.ar    1  UNL1       -0.2252
      9 C         139.9991  139.2900  162.7127 C.ar    1  UNL1        0.0875
     10 C         139.3898  138.9909  164.0504 C.ar    1  UNL1        0.0176
     11 C         138.8305  137.6278  164.3319 C.ar    1  UNL1        0.0015
     12 C         138.2212  137.3287  165.6695 C.ar    1  UNL1        0.0000
     13 C         138.1713  138.3927  166.7257 C.ar    1  UNL1       -0.0000
     14 C         138.7305  139.7557  166.4442 C.ar    1  UNL1       -0.0003
     15 C         139.3398  140.0548  165.1066 C.ar    1  UNL1       -0.0022
     16 C         141.8269  140.1874  158.6998 C.3     1  UNL1        0.1166
     17 C         140.9840  140.7728  157.6058 C.3     1  UNL1        0.0252
     18 C         141.5932  141.0719  156.2681 C.3     1  UNL1        0.0021
     19 C         143.0453  140.7856  156.0244 C.3     1  UNL1        0.0026
     20 C         143.8882  140.2002  157.1185 C.3     1  UNL1        0.0312
     21 C         143.2790  139.9011  158.4561 C.3     1  UNL1        0.1312
     22 O         144.1219  139.3157  159.5501 O.3     1  UNL1       -0.3825
     23 H         145.0291  139.1940  159.2293 H       1  UNL1        0.2104
     24 C         139.8492  142.4819  165.8813 C.3     1  UNL1        0.0542
     25 C         144.0015  142.6090  170.2104 C.3     1  UNL1        0.0521
     26 C         142.9634  142.5772  169.1282 C.ar    1  UNL1        0.0594
     27 C         143.3595  142.2522  167.7184 C.ar    1  UNL1        0.0144
     28 C         142.3214  142.2204  166.6360 C.ar    1  UNL1       -0.0012
     29 C         140.8872  142.5136  166.9635 C.ar    1  UNL1        0.0013
     30 C         140.4912  142.8386  168.3734 C.ar    1  UNL1        0.0945
     31 N         141.5293  142.8704  169.4557 N.ar    1  UNL1       -0.2485
@<TRIPOS>BOND
     1    25    26    1
     2    26    27   ar
     3    27    28   ar
     4    28    29   ar
     5    29    24    1
     6    24     1    1
     7     1     2   ar
     8     2     3   ar
     9     3     4   ar
    10     4     5    2
    11     4     6   ar
    12    16     6    1
    13    16    17    1
    14    17    18    1
    15    18    19    1
    16    19    20    1
    17    20    21    1
    18    21    22    1
    19     6     7   ar
    20     7     8   ar
    21     8     9   ar
    22     9    10   ar
    23    10    11   ar
    24    11    12   ar
    25    12    13   ar
    26    13    14   ar
    27    14    15   ar
    28    29    30   ar
    29    30    31   ar
    30    31    26   ar
    31    15     1   ar
    32     9     3   ar
    33    15    10   ar
    34    21    16    1
    35    22    23    1
@<TRIPOS>MOLECULE
*****
 31 35 0 0 0
SMALL
GASTEIGER

@<TRIPOS>ATOM
      1 C         139.5022  142.1287  164.8181 C.ar    1  UNL1       -0.0175
      2 C         139.8123  143.0251  163.6561 C.ar    1  UNL1        0.0023
      3 C         139.9152  142.4524  162.2736 C.ar    1  UNL1        0.0736
      4 C         140.2252  143.3490  161.1116 C.ar    1  UNL1        0.2634
      5 O         140.4323  144.8181  161.3321 O.2     1  UNL1       -0.2669
      6 N         140.3282  142.7763  159.7290 N.ar    1  UNL1       -0.2777
      7 C         140.1211  141.3070  159.5085 C.ar    1  UNL1        0.1808
      8 N         139.8110  140.4106  160.6705 N.ar    1  UNL1       -0.2252
      9 C         139.7081  140.9833  162.0530 C.ar    1  UNL1        0.0875
     10 C         139.3981  140.0868  163.2150 C.ar    1  UNL1        0.0176
     11 C         139.1910  138.6176  162.9945 C.ar    1  UNL1        0.0015
     12 C         138.8809  137.7212  164.1565 C.ar    1  UNL1        0.0000
     13 C         138.7780  138.2939  165.5390 C.ar    1  UNL1       -0.0000
     14 C         138.9851  139.7631  165.7596 C.ar    1  UNL1       -0.0003
     15 C         139.2951  140.6595  164.5976 C.ar    1  UNL1       -0.0022
     16 C         140.6382  143.6727  158.5671 C.3     1  UNL1        0.1166
     17 C         139.5496  144.0691  157.6144 C.3     1  UNL1        0.0252
     18 C         139.8596  144.9656  156.4523 C.3     1  UNL1        0.0021
     19 C         141.2582  145.4656  156.2430 C.3     1  UNL1        0.0026
     20 C         142.3469  145.0691  157.1958 C.3     1  UNL1        0.0312
     21 C         142.0369  144.1727  158.3578 C.3     1  UNL1        0.1312
     22 O         143.1255  143.7762  159.3105 O.3     1  UNL1       -0.3825
     23 H         143.9616  144.1823  159.0331 H       1  UNL1        0.2104
     24 C         139.3993  142.7014  166.2006 C.3     1  UNL1        0.0542
     25 C         144.1003  142.4281  169.9189 C.3     1  UNL1        0.0521
     26 C         142.9251  142.4964  168.9893 C.ar    1  UNL1        0.0594
     27 C         143.0828  142.1023  167.5507 C.ar    1  UNL1        0.0144
     28 C         141.9076  142.1707  166.6211 C.ar    1  UNL1       -0.0012
     29 C         140.5745  142.6331  167.1302 C.ar    1  UNL1        0.0013
     30 C         140.4168  143.0272  168.5689 C.ar    1  UNL1        0.0945
     31 N         141.5920  142.9588  169.4984 N.ar    1  UNL1       -0.2485
@<TRIPOS>BOND
     1    25    26    1
     2    26    27   ar
     3    27    28   ar
     4    28    29   ar
     5    29    24    1
     6    24     1    1
     7     1     2   ar
     8     2     3   ar
     9     3     4   ar
    10     4     5    2
    11     4     6   ar
    12    16     6    1
    13    16    17    1
    14    17    18    1
    15    18    19    1
    16    19    20    1
    17    20    21    1
    18    21    22    1
    19     6     7   ar
    20     7     8   ar
    21     8     9   ar
    22     9    10   ar
    23    10    11   ar
    24    11    12   ar
    25    12    13   ar
    26    13    14   ar
    27    14    15   ar
    28    29    30   ar
    29    30    31   ar
    30    31    26   ar
    31    15     1   ar
    32     9     3   ar
    33    15    10   ar
    34    21    16    1
    35    22    23    1
@<TRIPOS>MOLECULE
*****
 31 35 0 0 0
SMALL
GASTEIGER

@<TRIPOS>ATOM
      1 C         141.4822  143.0686  163.6731 C.ar    1  UNL1       -0.0175
      2 C         140.7717  143.5235  162.4329 C.ar    1  UNL1        0.0023
      3 C         141.4786  143.4950  161.1102 C.ar    1  UNL1        0.0736
      4 C         140.7680  143.9499  159.8700 C.ar    1  UNL1        0.2634
      5 O         139.3504  144.4333  159.9524 O.2     1  UNL1       -0.2669
      6 N         141.4750  143.9214  158.5474 N.ar    1  UNL1       -0.2777
      7 C         142.8926  143.4380  158.4650 C.ar    1  UNL1        0.1808
      8 N         143.6032  142.9831  159.7052 N.ar    1  UNL1       -0.2252
      9 C         142.8962  143.0116  161.0278 C.ar    1  UNL1        0.0875
     10 C         143.6068  142.5567  162.2680 C.ar    1  UNL1        0.0176
     11 C         145.0244  142.0734  162.1856 C.ar    1  UNL1        0.0015
     12 C         145.7350  141.6185  163.4258 C.ar    1  UNL1        0.0000
     13 C         145.0280  141.6470  164.7484 C.ar    1  UNL1       -0.0000
     14 C         143.6104  142.1303  164.8309 C.ar    1  UNL1       -0.0003
     15 C         142.8999  142.5852  163.5907 C.ar    1  UNL1       -0.0022
     16 C         140.7644  144.3763  157.3072 C.3     1  UNL1        0.1166
     17 C         139.6968  143.5175  156.6968 C.3     1  UNL1        0.0252
     18 C         138.9862  143.9723  155.4566 C.3     1  UNL1        0.0021
     19 C         139.3432  145.2860  154.8267 C.3     1  UNL1        0.0026
     20 C         140.4109  146.1449  155.4371 C.3     1  UNL1        0.0312
     21 C         141.1215  145.6900  156.6773 C.3     1  UNL1        0.1312
     22 O         142.1891  146.5488  157.2877 O.3     1  UNL1       -0.3825
     23 H         142.2948  147.3565  156.7609 H       1  UNL1        0.2104
     24 C         140.7752  143.0971  164.9957 C.3     1  UNL1        0.0542
     25 C         137.6895  138.2979  166.8520 C.3     1  UNL1        0.0521
     26 C         138.4609  139.4977  166.3879 C.ar    1  UNL1        0.0594
     27 C         139.5779  140.0421  167.2281 C.ar    1  UNL1        0.0144
     28 C         140.3494  141.2419  166.7640 C.ar    1  UNL1       -0.0012
     29 C         140.0038  141.8973  165.4598 C.ar    1  UNL1        0.0013
     30 C         138.8867  141.3529  164.6196 C.ar    1  UNL1        0.0945
     31 N         138.1153  140.1531  165.0837 N.ar    1  UNL1       -0.2485
@<TRIPOS>BOND
     1    25    26    1
     2    26    27   ar
     3    27    28   ar
     4    28    29   ar
     5    29    24    1
     6    24     1    1
     7     1     2   ar
     8     2     3   ar
     9     3     4   ar
    10     4     5    2
    11     4     6   ar
    12    16     6    1
    13    16    17    1
    14    17    18    1
    15    18    19    1
    16    19    20    1
    17    20    21    1
    18    21    22    1
    19     6     7   ar
    20     7     8   ar
    21     8     9   ar
    22     9    10   ar
    23    10    11   ar
    24    11    12   ar
    25    12    13   ar
    26    13    14   ar
    27    14    15   ar
    28    29    30   ar
    29    30    31   ar
    30    31    26   ar
    31    15     1   ar
    32     9     3   ar
    33    15    10   ar
    34    21    16    1
    35    22    23    1
@<TRIPOS>MOLECULE
*****
 31 35 0 0 0
SMALL
GASTEIGER

@<TRIPOS>ATOM
      1 C         142.0251  142.5225  164.2043 C.ar    1  UNL1       -0.0175
      2 C         142.6200  141.7174  163.0872 C.ar    1  UNL1        0.0023
      3 C         141.8275  141.4674  161.8384 C.ar    1  UNL1        0.0736
      4 C         142.4224  140.6622  160.7213 C.ar    1  UNL1        0.2634
      5 O         143.8097  140.1072  160.8530 O.2     1  UNL1       -0.2669
      6 N         141.6300  140.4122  159.4725 N.ar    1  UNL1       -0.2777
      7 C         140.2426  140.9673  159.3408 C.ar    1  UNL1        0.1808
      8 N         139.6478  141.7724  160.4579 N.ar    1  UNL1       -0.2252
      9 C         140.4403  142.0224  161.7067 C.ar    1  UNL1        0.0875
     10 C         139.8454  142.8276  162.8239 C.ar    1  UNL1        0.0176
     11 C         138.4581  143.3826  162.6922 C.ar    1  UNL1        0.0015
     12 C         137.8633  144.1877  163.8093 C.ar    1  UNL1        0.0000
     13 C         138.6557  144.4378  165.0581 C.ar    1  UNL1       -0.0000
     14 C         140.0430  143.8827  165.1898 C.ar    1  UNL1       -0.0003
     15 C         140.6378  143.0776  164.0727 C.ar    1  UNL1       -0.0022
     16 C         142.2248  139.6071  158.3554 C.3     1  UNL1        0.1166
     17 C         142.0681  138.1154  158.3401 C.3     1  UNL1        0.0252
     18 C         142.6629  137.3102  157.2229 C.3     1  UNL1        0.0021
     19 C         143.4144  137.9968  156.1211 C.3     1  UNL1        0.0026
     20 C         143.5711  139.4886  156.1365 C.3     1  UNL1        0.0312
     21 C         142.9762  140.2937  157.2536 C.3     1  UNL1        0.1312
     22 O         143.1329  141.7853  157.2690 O.3     1  UNL1       -0.3825
     23 H         143.6406  142.0652  156.4912 H       1  UNL1        0.2104
     24 C         142.8176  142.7726  165.4531 C.3     1  UNL1        0.0542
     25 C         142.5560  138.8712  170.0039 C.3     1  UNL1        0.0521
     26 C         142.6214  139.8465  168.8662 C.ar    1  UNL1        0.0594
     27 C         142.5750  139.3520  167.4509 C.ar    1  UNL1        0.0144
     28 C         142.6404  140.3274  166.3131 C.ar    1  UNL1       -0.0012
     29 C         142.7522  141.7972  166.5908 C.ar    1  UNL1        0.0013
     30 C         142.7986  142.2917  168.0063 C.ar    1  UNL1        0.0945
     31 N         142.7332  141.3163  169.1439 N.ar    1  UNL1       -0.2485
@<TRIPOS>BOND
     1    25    26    1
     2    26    27   ar
     3    27    28   ar
     4    28    29   ar
     5    29    24    1
     6    24     1    1
     7     1     2   ar
     8     2     3   ar
     9     3     4   ar
    10     4     5    2
    11     4     6   ar
    12    16     6    1
    13    16    17    1
    14    17    18    1
    15    18    19    1
    16    19    20    1
    17    20    21    1
    18    21    22    1
    19     6     7   ar
    20     7     8   ar
    21     8     9   ar
    22     9    10   ar
    23    10    11   ar
    24    11    12   ar
    25    12    13   ar
    26    13    14   ar
    27    14    15   ar
    28    29    30   ar
    29    30    31   ar
    30    31    26   ar
    31    15     1   ar
    32     9     3   ar
    33    15    10   ar
    34    21    16    1
    35    22    23    1
@<TRIPOS>MOLECULE
*****
 31 35 0 0 0
SMALL
GASTEIGER

@<TRIPOS>ATOM
      1 C         141.6439  141.3973  164.0230 C.ar    1  UNL1       -0.0175
      2 C         142.3988  140.8376  162.8540 C.ar    1  UNL1        0.0023
      3 C         142.3265  141.5182  161.5192 C.ar    1  UNL1        0.0736
      4 C         143.0814  140.9584  160.3500 C.ar    1  UNL1        0.2634
      5 O         143.9087  139.7182  160.5157 O.2     1  UNL1       -0.2669
      6 N         143.0091  141.6389  159.0153 N.ar    1  UNL1       -0.2777
      7 C         142.1818  142.8792  158.8496 C.ar    1  UNL1        0.1808
      8 N         141.4269  143.4389  160.0187 N.ar    1  UNL1       -0.2252
      9 C         141.4992  142.7584  161.3535 C.ar    1  UNL1        0.0875
     10 C         140.7443  143.3181  162.5226 C.ar    1  UNL1        0.0176
     11 C         139.9170  144.5583  162.3569 C.ar    1  UNL1        0.0015
     12 C         139.1621  145.1180  163.5260 C.ar    1  UNL1        0.0000
     13 C         139.2344  144.4375  164.8608 C.ar    1  UNL1       -0.0000
     14 C         140.0617  143.1973  165.0265 C.ar    1  UNL1       -0.0003
     15 C         140.8166  142.6376  163.8574 C.ar    1  UNL1       -0.0022
     16 C         143.7640  141.0793  157.8462 C.3     1  UNL1        0.1166
     17 C         143.2298  139.8865  157.1100 C.3     1  UNL1        0.0252
     18 C         143.9847  139.3268  155.9409 C.3     1  UNL1        0.0021
     19 C         145.2738  139.9599  155.5079 C.3     1  UNL1        0.0026
     20 C         145.8080  141.1527  156.2441 C.3     1  UNL1        0.0312
     21 C         145.0531  141.7123  157.4132 C.3     1  UNL1        0.1312
     22 O         145.5873  142.9051  158.1493 O.3     1  UNL1       -0.3825
     23 H         146.4219  143.1880  157.7441 H       1  UNL1        0.2104
     24 C         141.7162  140.7168  165.3578 C.3     1  UNL1        0.0542
     25 C         136.9546  137.7385  167.4688 C.3     1  UNL1        0.0521
     26 C         138.1450  138.4831  166.9411 C.ar    1  UNL1        0.0594
     27 C         138.6003  138.2649  165.5286 C.ar    1  UNL1        0.0144
     28 C         139.7907  139.0095  165.0008 C.ar    1  UNL1       -0.0012
     29 C         140.5258  139.9722  165.8856 C.ar    1  UNL1        0.0013
     30 C         140.0705  140.1904  167.2981 C.ar    1  UNL1        0.0945
     31 N         138.8801  139.4458  167.8258 N.ar    1  UNL1       -0.2485
@<TRIPOS>BOND
     1    25    26    1
     2    26    27   ar
     3    27    28   ar
     4    28    29   ar
     5    29    24    1
     6    24     1    1
     7     1     2   ar
     8     2     3   ar
     9     3     4   ar
    10     4     5    2
    11     4     6   ar
    12    16     6    1
    13    16    17    1
    14    17    18    1
    15    18    19    1
    16    19    20    1
    17    20    21    1
    18    21    22    1
    19     6     7   ar
    20     7     8   ar
    21     8     9   ar
    22     9    10   ar
    23    10    11   ar
    24    11    12   ar
    25    12    13   ar
    26    13    14   ar
    27    14    15   ar
    28    29    30   ar
    29    30    31   ar
    30    31    26   ar
    31    15     1   ar
    32     9     3   ar
    33    15    10   ar
    34    21    16    1
    35    22    23    1
