@<TRIPOS>MOLECULE
*****
 30 33 0 0 0
SMALL
GASTEIGER

@<TRIPOS>ATOM
      1 C         140.7544  140.0647  165.4835 C.ar    1  UNL1        0.0832
      2 C         139.3360  139.7424  165.1169 C.ar    1  UNL1        0.0125
      3 C         138.2720  139.2547  166.0550 C.3     1  UNL1        0.0340
      4 C         139.1684  139.9935  163.6476 C.ar    1  UNL1        0.0924
      5 N         140.4833  140.4709  163.1060 N.ar    1  UNL1       -0.1671
      6 N         141.4634  140.5149  164.2407 N.ar    1  UNL1       -0.2119
      7 C         143.1680  139.6293  170.9593 C.3     1  UNL1        0.0545
      8 C         142.5646  139.7381  169.5904 C.ar    1  UNL1        0.0867
      9 N         143.1192  138.9238  168.4594 N.ar    1  UNL1       -0.2458
     10 C         142.5158  139.0326  167.0904 C.ar    1  UNL1        0.1000
     11 C         141.3578  139.9558  166.8524 C.ar    1  UNL1        0.0389
     12 C         140.8032  140.7702  167.9834 C.ar    1  UNL1        0.0339
     13 C         141.4066  140.6613  169.3524 C.ar    1  UNL1        0.1536
     14 F         140.8519  141.4757  170.4834 F       1  UNL1       -0.2029
     15 C         142.9004  140.9353  164.1486 C.ar    1  UNL1        0.1743
     16 N         143.3053  142.3185  164.5648 N.ar    1  UNL1       -0.2243
     17 C         144.7422  142.7389  164.4728 C.ar    1  UNL1        0.1006
     18 C         145.7742  141.7763  163.9645 C.ar    1  UNL1        0.0217
     19 C         145.3693  140.3932  163.5483 C.ar    1  UNL1        0.0161
     20 C         143.9324  139.9728  163.6404 C.ar    1  UNL1        0.0934
     21 CL        143.5275  138.5897  163.2242 Cl      1  UNL1       -0.0790
     22 C         137.9074  139.8009  162.8584 C.3     1  UNL1        0.1166
     23 N         137.0311  140.9775  162.5462 N.3     1  UNL1       -0.2934
     24 H         136.1228  140.7889  162.9701 H       1  UNL1        0.1236
     25 C         137.4372  142.3528  162.9862 C.3     1  UNL1        0.0571
     26 C         137.9409  143.4504  162.0965 C.3     1  UNL1        0.0186
     27 C         138.2258  144.6479  162.9537 C.3     1  UNL1        0.0367
     28 C         137.8982  144.2905  164.3732 C.3     1  UNL1        0.1624
     29 F         138.0341  145.1930  165.5636 F       1  UNL1       -0.2372
     30 C         137.4107  142.8720  164.3933 C.3     1  UNL1        0.0510
@<TRIPOS>BOND
     1     7     8    1
     2     8     9   ar
     3     9    10   ar
     4    10    11   ar
     5    11     1    1
     6     1     2   ar
     7     2     3    1
     8     2     4   ar
     9     4    22    1
    10    22    23    1
    11    25    23    1
    12    25    26    1
    13    26    27    1
    14    27    28    1
    15    28    29    1
    16    28    30    1
    17     4     5   ar
    18     5     6   ar
    19     6    15    1
    20    15    16   ar
    21    16    17   ar
    22    17    18   ar
    23    18    19   ar
    24    19    20   ar
    25    20    21    1
    26    11    12   ar
    27    12    13   ar
    28    13    14    1
    29    13     8   ar
    30     6     1   ar
    31    20    15   ar
    32    30    25    1
    33    23    24    1
@<TRIPOS>MOLECULE
*****
 30 33 0 0 0
SMALL
GASTEIGER

@<TRIPOS>ATOM
      1 C         140.7458  140.0917  165.5347 C.ar    1  UNL1        0.0832
      2 C         139.3288  139.7573  165.1740 C.ar    1  UNL1        0.0125
      3 C         138.2649  139.2883  166.1218 C.3     1  UNL1        0.0340
      4 C         139.1623  139.9741  163.6992 C.ar    1  UNL1        0.0924
      5 N         140.4765  140.4425  163.1483 N.ar    1  UNL1       -0.1671
      6 N         141.4551  140.5152  164.2828 N.ar    1  UNL1       -0.2119
      7 C         143.1539  139.7886  171.0220 C.3     1  UNL1        0.0545
      8 C         142.5519  139.8644  169.6502 C.ar    1  UNL1        0.0867
      9 N         143.0734  138.9850  168.5526 N.ar    1  UNL1       -0.2458
     10 C         142.4713  139.0607  167.1808 C.ar    1  UNL1        0.1000
     11 C         141.3478  140.0159  166.9065 C.ar    1  UNL1        0.0389
     12 C         140.8263  140.8954  168.0041 C.ar    1  UNL1        0.0339
     13 C         141.4283  140.8196  169.3759 C.ar    1  UNL1        0.1536
     14 F         140.9068  141.6991  170.4734 F       1  UNL1       -0.2029
     15 C         142.8910  140.9374  164.1827 C.ar    1  UNL1        0.1743
     16 N         143.9498  139.9247  163.8605 N.ar    1  UNL1       -0.2243
     17 C         145.3857  140.3468  163.7605 C.ar    1  UNL1        0.1006
     18 C         145.7629  141.7815  163.9827 C.ar    1  UNL1        0.0217
     19 C         144.7042  142.7941  164.3049 C.ar    1  UNL1        0.0161
     20 C         143.2683  142.3720  164.4049 C.ar    1  UNL1        0.0934
     21 CL        142.2096  143.3847  164.7271 Cl      1  UNL1       -0.0790
     22 C         137.9028  139.7600  162.9132 C.3     1  UNL1        0.1166
     23 N         137.0174  140.9251  162.5835 N.3     1  UNL1       -0.2934
     24 H         136.1257  140.7586  163.0499 H       1  UNL1        0.1236
     25 C         137.4429  142.3168  162.9467 C.3     1  UNL1        0.0571
     26 C         137.3704  142.9328  164.3125 C.3     1  UNL1        0.0186
     27 C         137.8983  144.3336  164.2178 C.3     1  UNL1        0.0367
     28 C         138.2971  144.5835  162.7935 C.3     1  UNL1        0.1624
     29 F         138.8757  145.8562  162.2502 F       1  UNL1       -0.2372
     30 C         138.0156  143.3369  162.0079 C.3     1  UNL1        0.0510
@<TRIPOS>BOND
     1     7     8    1
     2     8     9   ar
     3     9    10   ar
     4    10    11   ar
     5    11     1    1
     6     1     2   ar
     7     2     3    1
     8     2     4   ar
     9     4    22    1
    10    22    23    1
    11    25    23    1
    12    25    26    1
    13    26    27    1
    14    27    28    1
    15    28    29    1
    16    28    30    1
    17     4     5   ar
    18     5     6   ar
    19     6    15    1
    20    15    16   ar
    21    16    17   ar
    22    17    18   ar
    23    18    19   ar
    24    19    20   ar
    25    20    21    1
    26    11    12   ar
    27    12    13   ar
    28    13    14    1
    29    13     8   ar
    30     6     1   ar
    31    20    15   ar
    32    30    25    1
    33    23    24    1
@<TRIPOS>MOLECULE
*****
 30 33 0 0 0
SMALL
GASTEIGER

@<TRIPOS>ATOM
      1 C         140.2024  141.0657  165.3778 C.ar    1  UNL1        0.0832
      2 C         139.1979  140.0087  165.0263 C.ar    1  UNL1        0.0125
      3 C         138.5078  139.0920  165.9924 C.3     1  UNL1        0.0340
      4 C         139.0047  140.0292  163.5389 C.ar    1  UNL1        0.0924
      5 N         139.8897  141.0989  162.9712 N.ar    1  UNL1       -0.1671
      6 N         140.6300  141.7395  164.1077 N.ar    1  UNL1       -0.2119
      7 C         142.1655  142.3697  170.8956 C.3     1  UNL1        0.0545
      8 C         141.6748  142.0437  169.5162 C.ar    1  UNL1        0.0867
      9 N         142.1202  140.7807  168.8406 N.ar    1  UNL1       -0.2458
     10 C         141.6294  140.4547  167.4612 C.ar    1  UNL1        0.1000
     11 C         140.6932  141.3917  166.7573 C.ar    1  UNL1        0.0389
     12 C         140.2478  142.6547  167.4328 C.ar    1  UNL1        0.0339
     13 C         140.7386  142.9807  168.8123 C.ar    1  UNL1        0.1536
     14 F         140.2931  144.2438  169.4878 F       1  UNL1       -0.2029
     15 C         141.6234  142.8577  163.9941 C.ar    1  UNL1        0.1743
     16 N         143.0890  142.5521  163.8988 N.ar    1  UNL1       -0.2243
     17 C         144.0824  143.6702  163.7852 C.ar    1  UNL1        0.1006
     18 C         143.6103  145.0939  163.7667 C.ar    1  UNL1        0.0217
     19 C         142.1449  145.3994  163.8620 C.ar    1  UNL1        0.0161
     20 C         141.1515  144.2813  163.9756 C.ar    1  UNL1        0.0934
     21 CL        139.6860  144.5870  164.0709 Cl      1  UNL1       -0.0790
     22 C         138.0874  139.1367  162.7566 C.3     1  UNL1        0.1166
     23 N         138.6478  137.9865  161.9737 N.3     1  UNL1       -0.2934
     24 H         138.0399  137.8567  161.1650 H       1  UNL1        0.1236
     25 C         140.0534  138.0475  161.4534 C.3     1  UNL1        0.0571
     26 C         140.4754  138.5730  160.1133 C.3     1  UNL1        0.0186
     27 C         141.9665  138.4440  160.0136 C.3     1  UNL1        0.0367
     28 C         142.4661  137.8388  161.2919 C.3     1  UNL1        0.1624
     29 F         143.8967  137.5324  161.6224 F       1  UNL1       -0.2372
     30 C         141.2836  137.5937  162.1819 C.3     1  UNL1        0.0510
@<TRIPOS>BOND
     1     7     8    1
     2     8     9   ar
     3     9    10   ar
     4    10    11   ar
     5    11     1    1
     6     1     2   ar
     7     2     3    1
     8     2     4   ar
     9     4    22    1
    10    22    23    1
    11    25    23    1
    12    25    26    1
    13    26    27    1
    14    27    28    1
    15    28    29    1
    16    28    30    1
    17     4     5   ar
    18     5     6   ar
    19     6    15    1
    20    15    16   ar
    21    16    17   ar
    22    17    18   ar
    23    18    19   ar
    24    19    20   ar
    25    20    21    1
    26    11    12   ar
    27    12    13   ar
    28    13    14    1
    29    13     8   ar
    30     6     1   ar
    31    20    15   ar
    32    30    25    1
    33    23    24    1
@<TRIPOS>MOLECULE
*****
 30 33 0 0 0
SMALL
GASTEIGER

@<TRIPOS>ATOM
      1 C         141.7679  140.4610  165.6419 C.ar    1  UNL1        0.0832
      2 C         142.6840  139.3852  165.1383 C.ar    1  UNL1        0.0125
      3 C         143.4988  138.4532  165.9854 C.3     1  UNL1        0.0340
      4 C         142.6421  139.4050  163.6390 C.ar    1  UNL1        0.0924
      5 N         141.7002  140.4930  163.2160 N.ar    1  UNL1       -0.1671
      6 N         141.1600  141.1456  164.4538 N.ar    1  UNL1       -0.2119
      7 C         140.7198  141.7917  171.3978 C.3     1  UNL1        0.0545
      8 C         140.9818  141.4590  169.9588 C.ar    1  UNL1        0.0867
      9 N         142.2822  141.8522  169.3229 N.ar    1  UNL1       -0.2458
     10 C         142.5443  141.5195  167.8839 C.ar    1  UNL1        0.1000
     11 C         141.5059  140.7937  167.0809 C.ar    1  UNL1        0.0389
     12 C         140.2055  140.4005  167.7168 C.ar    1  UNL1        0.0339
     13 C         139.9435  140.7332  169.1558 C.ar    1  UNL1        0.1536
     14 F         138.6431  140.3400  169.7917 F       1  UNL1       -0.2029
     15 C         140.1832  142.2832  164.4961 C.ar    1  UNL1        0.1743
     16 N         140.6802  143.6986  164.5064 N.ar    1  UNL1       -0.2243
     17 C         139.7035  144.8362  164.5487 C.ar    1  UNL1        0.1006
     18 C         138.2297  144.5586  164.5806 C.ar    1  UNL1        0.0217
     19 C         137.7328  143.1433  164.5703 C.ar    1  UNL1        0.0161
     20 C         138.7095  142.0057  164.5280 C.ar    1  UNL1        0.0934
     21 CL        138.2124  140.5904  164.5177 Cl      1  UNL1       -0.0790
     22 C         143.4078  138.4963  162.7236 C.3     1  UNL1        0.1166
     23 N         142.6736  137.5899  161.7805 N.3     1  UNL1       -0.2934
     24 H         142.6352  136.6722  162.2240 H       1  UNL1        0.1236
     25 C         141.2745  137.9242  161.3554 C.3     1  UNL1        0.0571
     26 C         140.8762  138.5651  160.0590 C.3     1  UNL1        0.0186
     27 C         139.3836  138.7133  160.0546 C.3     1  UNL1        0.0367
     28 C         138.8593  138.1641  161.3483 C.3     1  UNL1        0.1624
     29 F         137.4193  138.1118  161.7648 F       1  UNL1       -0.2372
     30 C         140.0280  137.6764  162.1523 C.3     1  UNL1        0.0510
@<TRIPOS>BOND
     1     7     8    1
     2     8     9   ar
     3     9    10   ar
     4    10    11   ar
     5    11     1    1
     6     1     2   ar
     7     2     3    1
     8     2     4   ar
     9     4    22    1
    10    22    23    1
    11    25    23    1
    12    25    26    1
    13    26    27    1
    14    27    28    1
    15    28    29    1
    16    28    30    1
    17     4     5   ar
    18     5     6   ar
    19     6    15    1
    20    15    16   ar
    21    16    17   ar
    22    17    18   ar
    23    18    19   ar
    24    19    20   ar
    25    20    21    1
    26    11    12   ar
    27    12    13   ar
    28    13    14    1
    29    13     8   ar
    30     6     1   ar
    31    20    15   ar
    32    30    25    1
    33    23    24    1
@<TRIPOS>MOLECULE
*****
 30 33 0 0 0
SMALL
GASTEIGER

@<TRIPOS>ATOM
      1 C         139.3467  140.8126  165.4313 C.ar    1  UNL1        0.0832
      2 C         138.8846  139.9804  166.5906 C.ar    1  UNL1        0.0125
      3 C         137.9654  138.7974  166.5159 C.3     1  UNL1        0.0340
      4 C         139.5032  140.5389  167.8378 C.ar    1  UNL1        0.0924
      5 N         140.3475  141.7162  167.4493 N.ar    1  UNL1       -0.1671
      6 N         140.2508  141.8854  165.9620 N.ar    1  UNL1       -0.2119
      7 C         137.8426  139.9938  159.6809 C.3     1  UNL1        0.0545
      8 C         138.2186  140.1985  161.1185 C.ar    1  UNL1        0.0867
      9 N         137.3424  141.0248  162.0125 N.ar    1  UNL1       -0.2458
     10 C         137.7185  141.2295  163.4501 C.ar    1  UNL1        0.1000
     11 C         138.9707  140.6079  163.9937 C.ar    1  UNL1        0.0389
     12 C         139.8468  139.7815  163.0996 C.ar    1  UNL1        0.0339
     13 C         139.4708  139.5768  161.6620 C.ar    1  UNL1        0.1536
     14 F         140.3471  138.7504  160.7679 F       1  UNL1       -0.2029
     15 C         140.9376  142.9419  165.1483 C.ar    1  UNL1        0.1743
     16 N         142.3886  142.7934  164.7977 N.ar    1  UNL1       -0.2243
     17 C         143.0754  143.8499  163.9840 C.ar    1  UNL1        0.1006
     18 C         142.3114  145.0548  163.5209 C.ar    1  UNL1        0.0217
     19 C         140.8605  145.2032  163.8716 C.ar    1  UNL1        0.0161
     20 C         140.1737  144.1467  164.6853 C.ar    1  UNL1        0.0934
     21 CL        138.7227  144.2953  165.0359 Cl      1  UNL1       -0.0790
     22 C         139.3111  140.0124  169.2292 C.3     1  UNL1        0.1166
     23 N         140.4969  139.8124  170.1257 N.3     1  UNL1       -0.2934
     24 H         140.9146  138.9187  169.8665 H       1  UNL1        0.1236
     25 C         141.6065  140.8217  170.1380 C.3     1  UNL1        0.0571
     26 C         142.9341  140.6808  169.4542 C.3     1  UNL1        0.0186
     27 C         143.7314  141.9211  169.7299 C.3     1  UNL1        0.0367
     28 C         142.8965  142.8286  170.5840 C.3     1  UNL1        0.1624
     29 F         143.3035  144.1785  171.0960 F       1  UNL1       -0.2372
     30 C         141.5832  142.1491  170.8363 C.3     1  UNL1        0.0510
@<TRIPOS>BOND
     1     7     8    1
     2     8     9   ar
     3     9    10   ar
     4    10    11   ar
     5    11     1    1
     6     1     2   ar
     7     2     3    1
     8     2     4   ar
     9     4    22    1
    10    22    23    1
    11    25    23    1
    12    25    26    1
    13    26    27    1
    14    27    28    1
    15    28    29    1
    16    28    30    1
    17     4     5   ar
    18     5     6   ar
    19     6    15    1
    20    15    16   ar
    21    16    17   ar
    22    17    18   ar
    23    18    19   ar
    24    19    20   ar
    25    20    21    1
    26    11    12   ar
    27    12    13   ar
    28    13    14    1
    29    13     8   ar
    30     6     1   ar
    31    20    15   ar
    32    30    25    1
    33    23    24    1
@<TRIPOS>MOLECULE
*****
 30 33 0 0 0
SMALL
GASTEIGER

@<TRIPOS>ATOM
      1 C         141.6048  140.3385  165.6085 C.ar    1  UNL1        0.0832
      2 C         142.5305  139.2702  165.1065 C.ar    1  UNL1        0.0125
      3 C         143.3954  138.3840  165.9530 C.3     1  UNL1        0.0340
      4 C         142.4394  139.2437  163.6095 C.ar    1  UNL1        0.0924
      5 N         141.4574  140.2957  163.1862 N.ar    1  UNL1       -0.1671
      6 N         140.9416  140.9722  164.4217 N.ar    1  UNL1       -0.2119
      7 C         140.7117  141.8168  171.3545 C.3     1  UNL1        0.0545
      8 C         140.9350  141.4472  169.9180 C.ar    1  UNL1        0.0867
      9 N         142.2165  141.8257  169.2366 N.ar    1  UNL1       -0.2458
     10 C         142.4398  141.4561  167.8001 C.ar    1  UNL1        0.1000
     11 C         141.3815  140.7080  167.0450 C.ar    1  UNL1        0.0389
     12 C         140.1000  140.3295  167.7263 C.ar    1  UNL1        0.0339
     13 C         139.8767  140.6991  169.1628 C.ar    1  UNL1        0.1536
     14 F         138.5950  140.3206  169.8442 F       1  UNL1       -0.2029
     15 C         139.9387  142.0869  164.4630 C.ar    1  UNL1        0.1743
     16 N         140.4029  143.5108  164.5463 N.ar    1  UNL1       -0.2243
     17 C         139.4000  144.6255  164.5876 C.ar    1  UNL1        0.1006
     18 C         137.9328  144.3162  164.5456 C.ar    1  UNL1        0.0217
     19 C         137.4686  142.8923  164.4623 C.ar    1  UNL1        0.0161
     20 C         138.4716  141.7777  164.4210 C.ar    1  UNL1        0.0934
     21 CL        138.0072  140.3537  164.3376 Cl      1  UNL1       -0.0790
     22 C         143.1972  138.3264  162.6962 C.3     1  UNL1        0.1166
     23 N         144.3569  138.8494  161.9014 N.3     1  UNL1       -0.2934
     24 H         144.3986  138.2985  161.0440 H       1  UNL1        0.1236
     25 C         144.3955  140.2918  161.4916 C.3     1  UNL1        0.0571
     26 C         145.0110  141.4144  162.2733 C.3     1  UNL1        0.0186
     27 C         144.8213  142.6812  161.4928 C.3     1  UNL1        0.0367
     28 C         144.0886  142.3417  160.2288 C.3     1  UNL1        0.1624
     29 F         143.6891  143.3090  159.1542 F       1  UNL1       -0.2372
     30 C         143.8254  140.8649  160.2280 C.3     1  UNL1        0.0510
@<TRIPOS>BOND
     1     7     8    1
     2     8     9   ar
     3     9    10   ar
     4    10    11   ar
     5    11     1    1
     6     1     2   ar
     7     2     3    1
     8     2     4   ar
     9     4    22    1
    10    22    23    1
    11    25    23    1
    12    25    26    1
    13    26    27    1
    14    27    28    1
    15    28    29    1
    16    28    30    1
    17     4     5   ar
    18     5     6   ar
    19     6    15    1
    20    15    16   ar
    21    16    17   ar
    22    17    18   ar
    23    18    19   ar
    24    19    20   ar
    25    20    21    1
    26    11    12   ar
    27    12    13   ar
    28    13    14    1
    29    13     8   ar
    30     6     1   ar
    31    20    15   ar
    32    30    25    1
    33    23    24    1
@<TRIPOS>MOLECULE
*****
 30 33 0 0 0
SMALL
GASTEIGER

@<TRIPOS>ATOM
      1 C         142.6876  141.5032  165.3300 C.ar    1  UNL1        0.0832
      2 C         143.4971  142.5584  164.6363 C.ar    1  UNL1        0.0125
      3 C         144.5252  143.4437  165.2761 C.3     1  UNL1        0.0340
      4 C         143.0981  142.5730  163.1904 C.ar    1  UNL1        0.0924
      5 N         142.0419  141.5268  162.9905 N.ar    1  UNL1       -0.1671
      6 N         141.7883  140.8656  164.3128 N.ar    1  UNL1       -0.2119
      7 C         142.9934  140.0821  171.1512 C.3     1  UNL1        0.0545
      8 C         142.9169  140.4374  169.6959 C.ar    1  UNL1        0.0867
      9 N         142.9417  139.3553  168.6575 N.ar    1  UNL1       -0.2458
     10 C         142.8653  139.7106  167.2021 C.ar    1  UNL1        0.1000
     11 C         142.7641  141.1479  166.7853 C.ar    1  UNL1        0.0389
     12 C         142.7393  142.2300  167.8238 C.ar    1  UNL1        0.0339
     13 C         142.8157  141.8747  169.2791 C.ar    1  UNL1        0.1536
     14 F         142.7909  142.9569  170.3176 F       1  UNL1       -0.2029
     15 C         140.8074  139.7608  164.5724 C.ar    1  UNL1        0.1743
     16 N         141.1762  138.3412  164.2578 N.ar    1  UNL1       -0.2243
     17 C         140.1954  137.2364  164.5173 C.ar    1  UNL1        0.1006
     18 C         138.8458  137.5511  165.0914 C.ar    1  UNL1        0.0217
     19 C         138.4770  138.9707  165.4059 C.ar    1  UNL1        0.0161
     20 C         139.4579  140.0755  165.1464 C.ar    1  UNL1        0.0934
     21 CL        139.0890  141.4950  165.4610 Cl      1  UNL1       -0.0790
     22 C         143.6570  143.4754  162.1306 C.3     1  UNL1        0.1166
     23 N         142.9292  144.7321  161.7553 N.3     1  UNL1       -0.2934
     24 H         142.9016  144.7633  160.7362 H       1  UNL1        0.1236
     25 C         141.5253  144.9570  162.2335 C.3     1  UNL1        0.0571
     26 C         140.3317  145.2298  161.3670 C.3     1  UNL1        0.0186
     27 C         139.1374  145.3900  162.2602 C.3     1  UNL1        0.0367
     28 C         139.5928  145.2162  163.6788 C.3     1  UNL1        0.1624
     29 F         138.7247  145.2960  164.8995 F       1  UNL1       -0.2372
     30 C         141.0687  144.9486  163.6623 C.3     1  UNL1        0.0510
@<TRIPOS>BOND
     1     7     8    1
     2     8     9   ar
     3     9    10   ar
     4    10    11   ar
     5    11     1    1
     6     1     2   ar
     7     2     3    1
     8     2     4   ar
     9     4    22    1
    10    22    23    1
    11    25    23    1
    12    25    26    1
    13    26    27    1
    14    27    28    1
    15    28    29    1
    16    28    30    1
    17     4     5   ar
    18     5     6   ar
    19     6    15    1
    20    15    16   ar
    21    16    17   ar
    22    17    18   ar
    23    18    19   ar
    24    19    20   ar
    25    20    21    1
    26    11    12   ar
    27    12    13   ar
    28    13    14    1
    29    13     8   ar
    30     6     1   ar
    31    20    15   ar
    32    30    25    1
    33    23    24    1
@<TRIPOS>MOLECULE
*****
 30 33 0 0 0
SMALL
GASTEIGER

@<TRIPOS>ATOM
      1 C         140.4432  141.2487  165.4261 C.ar    1  UNL1        0.0832
      2 C         139.4048  140.1843  165.2290 C.ar    1  UNL1        0.0125
      3 C         138.7716  139.3594  166.3100 C.3     1  UNL1        0.0340
      4 C         139.1108  140.0896  163.7611 C.ar    1  UNL1        0.0924
      5 N         139.9675  141.0955  163.0510 N.ar    1  UNL1       -0.1671
      6 N         140.7909  141.8118  164.0800 N.ar    1  UNL1       -0.2119
      7 C         142.7931  142.9542  170.6767 C.3     1  UNL1        0.0545
      8 C         142.2056  142.5278  169.3640 C.ar    1  UNL1        0.0867
      9 N         142.8905  141.4767  168.5419 N.ar    1  UNL1       -0.2458
     10 C         142.3030  141.0503  167.2293 C.ar    1  UNL1        0.1000
     11 C         141.0307  141.6751  166.7387 C.ar    1  UNL1        0.0389
     12 C         140.3458  142.7262  167.5608 C.ar    1  UNL1        0.0339
     13 C         140.9333  143.1526  168.8735 C.ar    1  UNL1        0.1536
     14 F         140.2483  144.2038  169.6956 F       1  UNL1       -0.2029
     15 C         141.7872  142.9002  163.8102 C.ar    1  UNL1        0.1743
     16 N         143.1702  142.5526  163.3445 N.ar    1  UNL1       -0.2243
     17 C         144.1665  143.6410  163.0747 C.ar    1  UNL1        0.1006
     18 C         143.7799  145.0770  163.2706 C.ar    1  UNL1        0.0217
     19 C         142.3971  145.4246  163.7363 C.ar    1  UNL1        0.0161
     20 C         141.4008  144.3362  164.0061 C.ar    1  UNL1        0.0934
     21 CL        140.0179  144.6840  164.4718 Cl      1  UNL1       -0.0790
     22 C         138.1320  139.1534  163.1166 C.3     1  UNL1        0.1166
     23 N         137.4786  139.5280  161.8194 N.3     1  UNL1       -0.2934
     24 H         137.1872  140.5015  161.9068 H       1  UNL1        0.1236
     25 C         138.2452  139.4192  160.5347 C.3     1  UNL1        0.0571
     26 C         138.0367  140.2594  159.3097 C.3     1  UNL1        0.0186
     27 C         139.0176  139.8105  158.2673 C.3     1  UNL1        0.0367
     28 C         139.8323  138.6929  158.8481 C.3     1  UNL1        0.1624
     29 F         140.9313  137.9480  158.1501 F       1  UNL1       -0.2372
     30 C         139.3549  138.4510  160.2495 C.3     1  UNL1        0.0510
@<TRIPOS>BOND
     1     7     8    1
     2     8     9   ar
     3     9    10   ar
     4    10    11   ar
     5    11     1    1
     6     1     2   ar
     7     2     3    1
     8     2     4   ar
     9     4    22    1
    10    22    23    1
    11    25    23    1
    12    25    26    1
    13    26    27    1
    14    27    28    1
    15    28    29    1
    16    28    30    1
    17     4     5   ar
    18     5     6   ar
    19     6    15    1
    20    15    16   ar
    21    16    17   ar
    22    17    18   ar
    23    18    19   ar
    24    19    20   ar
    25    20    21    1
    26    11    12   ar
    27    12    13   ar
    28    13    14    1
    29    13     8   ar
    30     6     1   ar
    31    20    15   ar
    32    30    25    1
    33    23    24    1
@<TRIPOS>MOLECULE
*****
 30 33 0 0 0
SMALL
GASTEIGER

@<TRIPOS>ATOM
      1 C         142.0527  140.5604  165.5842 C.ar    1  UNL1        0.0832
      2 C         142.9944  139.5142  165.0660 C.ar    1  UNL1        0.0125
      3 C         143.8262  138.5857  165.9002 C.3     1  UNL1        0.0340
      4 C         142.9585  139.5595  163.5671 C.ar    1  UNL1        0.0924
      5 N         141.9944  140.6338  163.1589 N.ar    1  UNL1       -0.1671
      6 N         141.4346  141.2523  164.4055 N.ar    1  UNL1       -0.2119
      7 C         140.9512  141.7659  171.3577 C.3     1  UNL1        0.0545
      8 C         141.2266  141.4645  169.9143 C.ar    1  UNL1        0.0867
      9 N         140.3867  140.4585  169.1847 N.ar    1  UNL1       -0.2458
     10 C         140.6620  140.1571  167.7413 C.ar    1  UNL1        0.1000
     11 C         141.7773  140.8618  167.0275 C.ar    1  UNL1        0.0389
     12 C         142.6172  141.8679  167.7571 C.ar    1  UNL1        0.0339
     13 C         142.3418  142.1692  169.2005 C.ar    1  UNL1        0.1536
     14 F         143.1818  143.1754  169.9301 F       1  UNL1       -0.2029
     15 C         140.4327  142.3671  164.4632 C.ar    1  UNL1        0.1743
     16 N         138.9681  142.0554  164.5530 N.ar    1  UNL1       -0.2243
     17 C         137.9661  143.1702  164.6107 C.ar    1  UNL1        0.1006
     18 C         138.4287  144.5967  164.5788 C.ar    1  UNL1        0.0217
     19 C         139.8932  144.9084  164.4891 C.ar    1  UNL1        0.0161
     20 C         140.8951  143.7936  164.4313 C.ar    1  UNL1        0.0934
     21 CL        142.3597  144.1055  164.3416 Cl      1  UNL1       -0.0790
     22 C         143.7479  138.6843  162.6393 C.3     1  UNL1        0.1166
     23 N         143.0423  137.6960  161.7588 N.3     1  UNL1       -0.2934
     24 H         143.0530  136.8028  162.2511 H       1  UNL1        0.1236
     25 C         141.6230  137.9432  161.3411 C.3     1  UNL1        0.0571
     26 C         141.1789  138.5518  160.0440 C.3     1  UNL1        0.0186
     27 C         139.6800  138.6099  160.0484 C.3     1  UNL1        0.0367
     28 C         139.1978  138.0373  161.3482 C.3     1  UNL1        0.1624
     29 F         137.7661  137.9006  161.7744 F       1  UNL1       -0.2372
     30 C         140.3986  137.6252  162.1472 C.3     1  UNL1        0.0510
@<TRIPOS>BOND
     1     7     8    1
     2     8     9   ar
     3     9    10   ar
     4    10    11   ar
     5    11     1    1
     6     1     2   ar
     7     2     3    1
     8     2     4   ar
     9     4    22    1
    10    22    23    1
    11    25    23    1
    12    25    26    1
    13    26    27    1
    14    27    28    1
    15    28    29    1
    16    28    30    1
    17     4     5   ar
    18     5     6   ar
    19     6    15    1
    20    15    16   ar
    21    16    17   ar
    22    17    18   ar
    23    18    19   ar
    24    19    20   ar
    25    20    21    1
    26    11    12   ar
    27    12    13   ar
    28    13    14    1
    29    13     8   ar
    30     6     1   ar
    31    20    15   ar
    32    30    25    1
    33    23    24    1
