@<TRIPOS>MOLECULE
*****
 28 31 0 0 0
SMALL
GASTEIGER

@<TRIPOS>ATOM
      1 C         139.6511  142.9365  164.5965 C.ar    1  UNL1        0.1515
      2 N         140.5277  143.3481  165.7419 N.ar    1  UNL1       -0.1596
      3 N         140.4643  142.2715  166.7845 N.ar    1  UNL1       -0.2112
      4 C         139.5484  141.1944  166.2833 C.ar    1  UNL1        0.0596
      5 C         139.0458  141.6054  164.9311 C.ar    1  UNL1        0.0153
      6 C         138.1300  140.5284  164.4299 C.3     1  UNL1        0.0297
      7 C         138.0665  139.4517  165.4724 C.3     1  UNL1        0.0104
      8 C         138.2004  138.5613  166.6720 C.3     1  UNL1        0.0066
      9 C         138.9432  139.8633  166.6178 C.3     1  UNL1        0.0405
     10 C         141.1894  142.2717  168.0975 C.ar    1  UNL1        0.2362
     11 C         140.4147  142.2659  169.3821 C.ar    1  UNL1        0.3408
     12 N         141.1396  142.2661  170.6951 N.ar    1  UNL1       -0.1478
     13 O         140.3649  142.2603  171.9796 O.co2   1  UNL1       -0.6186
     14 C         142.6393  142.2721  170.7239 C.ar    1  UNL1        0.3227
     15 C         143.4140  142.2779  169.4395 C.ar    1  UNL1        0.1776
     16 N         142.6891  142.2777  168.1263 N.ar    1  UNL1       -0.2133
     17 N         140.4591  143.7223  162.2557 N.am    1  UNL1       -0.2987
     18 C         139.4202  143.7186  163.3376 C.2     1  UNL1        0.2651
     19 O         138.1502  144.4971  163.1606 O.2     1  UNL1       -0.2684
     20 H         141.2926  143.2113  162.3719 H       1  UNL1        0.1498
     21 CA        140.2282  144.5044  160.9967 C.3     1  UNL1        0.1010
     22 C         141.4338  144.6996  159.2623 C.3     1  UNL1        0.0017
     23 C         140.2897  143.8171  159.6649 C.3     1  UNL1        0.0189
     24 C         139.1455  142.9346  160.0675 C.3     1  UNL1        0.0017
     25 C         140.3512  143.1298  158.3330 C.3     1  UNL1        0.0017
     26 C         139.9358  145.9738  161.0697 C.3     1  UNL1        0.1565
     27 O         140.2603  146.7421  162.3165 O.3     1  UNL1       -0.3802
     28 H         139.7005  146.4290  163.0442 H       1  UNL1        0.2105
@<TRIPOS>UNITY_ATOM_ATTR
12 1
charge 1
13 1
charge -1
@<TRIPOS>BOND
     1    22    23    1
     2    23    24    1
     3    23    25    1
     4    23    21    1
     5    21    26    1
     6    26    27    1
     7    21    17    1
     8    17    18   am
     9    18    19    2
    10    18     1    1
    11     1     2   ar
    12     2     3   ar
    13     3    10    1
    14    10    11   ar
    15    11    12   ar
    16    12    13    1
    17    12    14   ar
    18    14    15   ar
    19    15    16   ar
    20     3     4   ar
    21     4     5   ar
    22     5     6    1
    23     7     6    1
    24     7     8    1
    25     9     8    1
    26     5     1   ar
    27     9     7    1
    28    16    10   ar
    29     9     4    1
    30    27    28    1
    31    17    20    1
@<TRIPOS>MOLECULE
*****
 28 31 0 0 0
SMALL
GASTEIGER

@<TRIPOS>ATOM
      1 C         141.4417  140.0333  164.3241 C.ar    1  UNL1        0.1515
      2 N         142.1326  140.9100  165.3261 N.ar    1  UNL1       -0.1596
      3 N         141.3342  140.8815  166.5956 N.ar    1  UNL1       -0.2112
      4 C         140.1497  139.9870  166.3781 C.ar    1  UNL1        0.0596
      5 C         140.2162  139.4629  164.9743 C.ar    1  UNL1        0.0153
      6 C         139.0318  138.5685  164.7569 C.3     1  UNL1        0.0297
      7 C         138.2333  138.5399  166.0264 C.3     1  UNL1        0.0104
      8 C         137.6572  138.7056  167.4014 C.3     1  UNL1        0.0066
      9 C         138.9242  139.4167  167.0284 C.3     1  UNL1        0.0405
     10 C         141.6623  141.6179  167.8604 C.ar    1  UNL1        0.2362
     11 C         140.7334  142.6780  168.3736 C.ar    1  UNL1        0.3408
     12 N         141.0615  143.4145  169.6384 N.ar    1  UNL1       -0.1478
     13 O         140.1325  144.4745  170.1517 O.co2   1  UNL1       -0.6186
     14 C         142.3185  143.0909  170.3902 C.ar    1  UNL1        0.3227
     15 C         143.2475  142.0309  169.8770 C.ar    1  UNL1        0.1776
     16 N         142.9194  141.2944  168.6122 N.ar    1  UNL1       -0.2133
     17 N         141.3895  138.5717  162.1768 N.am    1  UNL1       -0.2987
     18 C         141.8965  139.7727  162.9186 C.2     1  UNL1        0.2651
     19 O         142.8583  140.7133  162.2551 O.2     1  UNL1       -0.2684
     20 H         140.7582  137.9544  162.6124 H       1  UNL1        0.1498
     21 CA        141.8442  138.3111  160.7714 C.3     1  UNL1        0.1010
     22 C         142.2017  139.1176  158.8422 C.3     1  UNL1        0.0017
     23 C         140.9797  138.7192  159.6155 C.3     1  UNL1        0.0189
     24 C         139.7576  138.3208  160.3888 C.3     1  UNL1        0.0017
     25 C         140.1151  139.1273  158.4596 C.3     1  UNL1        0.0017
     26 C         143.1635  137.6424  160.5218 C.3     1  UNL1        0.1565
     27 O         144.3604  138.0137  161.3462 O.3     1  UNL1       -0.3802
     28 H         144.6072  138.9335  161.1618 H       1  UNL1        0.2105
@<TRIPOS>UNITY_ATOM_ATTR
12 1
charge 1
13 1
charge -1
@<TRIPOS>BOND
     1    22    23    1
     2    23    24    1
     3    23    25    1
     4    23    21    1
     5    21    26    1
     6    26    27    1
     7    21    17    1
     8    17    18   am
     9    18    19    2
    10    18     1    1
    11     1     2   ar
    12     2     3   ar
    13     3    10    1
    14    10    11   ar
    15    11    12   ar
    16    12    13    1
    17    12    14   ar
    18    14    15   ar
    19    15    16   ar
    20     3     4   ar
    21     4     5   ar
    22     5     6    1
    23     7     6    1
    24     7     8    1
    25     9     8    1
    26     5     1   ar
    27     9     7    1
    28    16    10   ar
    29     9     4    1
    30    27    28    1
    31    17    20    1
@<TRIPOS>MOLECULE
*****
 28 31 0 0 0
SMALL
GASTEIGER

@<TRIPOS>ATOM
      1 C         140.8641  141.3317  164.7261 C.ar    1  UNL1        0.1515
      2 N         141.4998  141.8410  165.9857 N.ar    1  UNL1       -0.1596
      3 N         140.8130  141.1881  167.1484 N.ar    1  UNL1       -0.2112
      4 C         139.7527  140.2752  166.6074 C.ar    1  UNL1        0.0596
      5 C         139.7843  140.3640  165.1104 C.ar    1  UNL1        0.0153
      6 C         138.7241  139.4512  164.5695 C.3     1  UNL1        0.0297
      7 C         138.0372  138.7982  165.7322 C.3     1  UNL1        0.0104
      8 C         137.5507  138.3150  167.0662 C.3     1  UNL1        0.0066
      9 C         138.6729  139.3075  166.9917 C.3     1  UNL1        0.0405
     10 C         141.1305  141.4091  168.5976 C.ar    1  UNL1        0.2362
     11 C         142.0408  142.5301  169.0035 C.ar    1  UNL1        0.3408
     12 N         142.3584  142.7512  170.4526 N.ar    1  UNL1       -0.1478
     13 O         143.2687  143.8723  170.8584 O.co2   1  UNL1       -0.6186
     14 C         141.7657  141.8513  171.4961 C.ar    1  UNL1        0.3227
     15 C         140.8554  140.7303  171.0903 C.ar    1  UNL1        0.1776
     16 N         140.5378  140.5092  169.6411 N.ar    1  UNL1       -0.2133
     17 N         141.8879  143.0501  163.0683 N.am    1  UNL1       -0.2987
     18 C         141.2418  141.7216  163.3278 C.2     1  UNL1        0.2651
     19 O         140.9734  140.7828  162.1891 O.2     1  UNL1       -0.2684
     20 H         142.0641  143.6662  163.8157 H       1  UNL1        0.1498
     21 CA        142.2656  143.4400  161.6700 C.3     1  UNL1        0.1010
     22 C         144.2863  143.6336  162.2859 C.3     1  UNL1        0.0017
     23 C         143.5911  143.0207  161.1065 C.3     1  UNL1        0.0189
     24 C         142.8958  142.4079  159.9271 C.3     1  UNL1        0.0017
     25 C         144.9165  142.6014  160.5430 C.3     1  UNL1        0.0017
     26 C         141.3179  144.2492  160.8351 C.3     1  UNL1        0.1565
     27 O         141.6968  145.6336  160.3992 O.3     1  UNL1       -0.3802
     28 H         141.7621  146.2107  161.1761 H       1  UNL1        0.2105
@<TRIPOS>UNITY_ATOM_ATTR
12 1
charge 1
13 1
charge -1
@<TRIPOS>BOND
     1    22    23    1
     2    23    24    1
     3    23    25    1
     4    23    21    1
     5    21    26    1
     6    26    27    1
     7    21    17    1
     8    17    18   am
     9    18    19    2
    10    18     1    1
    11     1     2   ar
    12     2     3   ar
    13     3    10    1
    14    10    11   ar
    15    11    12   ar
    16    12    13    1
    17    12    14   ar
    18    14    15   ar
    19    15    16   ar
    20     3     4   ar
    21     4     5   ar
    22     5     6    1
    23     7     6    1
    24     7     8    1
    25     9     8    1
    26     5     1   ar
    27     9     7    1
    28    16    10   ar
    29     9     4    1
    30    27    28    1
    31    17    20    1
@<TRIPOS>MOLECULE
*****
 28 31 0 0 0
SMALL
GASTEIGER

@<TRIPOS>ATOM
      1 C         140.2129  142.5418  164.4889 C.ar    1  UNL1        0.1515
      2 N         141.0008  142.9865  165.6853 N.ar    1  UNL1       -0.1596
      3 N         140.6788  142.0622  166.8221 N.ar    1  UNL1       -0.2112
      4 C         139.6918  141.0463  166.3281 C.ar    1  UNL1        0.0596
      5 C         139.4040  141.3428  164.8861 C.ar    1  UNL1        0.0153
      6 C         138.4170  140.3269  164.3922 C.3     1  UNL1        0.0297
      7 C         138.0950  139.4026  165.5288 C.3     1  UNL1        0.0104
      8 C         137.9740  138.6582  166.8254 C.3     1  UNL1        0.0066
      9 C         138.8829  139.8473  166.7253 C.3     1  UNL1        0.0405
     10 C         141.2443  142.1401  168.2091 C.ar    1  UNL1        0.2362
     11 C         142.7032  142.4263  168.4093 C.ar    1  UNL1        0.3408
     12 N         143.2687  142.5042  169.7963 N.ar    1  UNL1       -0.1478
     13 O         144.7276  142.7904  169.9965 O.co2   1  UNL1       -0.6186
     14 C         142.3756  142.2958  170.9833 C.ar    1  UNL1        0.3227
     15 C         140.9168  142.0096  170.7832 C.ar    1  UNL1        0.1776
     16 N         140.3512  141.9317  169.3961 N.ar    1  UNL1       -0.2133
     17 N         140.7008  142.4044  161.9408 N.am    1  UNL1       -0.2987
     18 C         140.2309  143.1836  163.1332 C.2     1  UNL1        0.2651
     19 O         139.7788  144.6045  162.9701 O.2     1  UNL1       -0.2684
     20 H         140.9975  141.4718  162.0479 H       1  UNL1        0.1498
     21 CA        140.7187  143.0462  160.5851 C.3     1  UNL1        0.1010
     22 C         139.3838  141.4306  160.2562 C.3     1  UNL1        0.0017
     23 C         139.6183  142.7620  159.6062 C.3     1  UNL1        0.0189
     24 C         139.8527  144.0934  158.9561 C.3     1  UNL1        0.0017
     25 C         138.5178  142.4778  158.6272 C.3     1  UNL1        0.0017
     26 C         141.8371  143.9721  160.2084 C.3     1  UNL1        0.1565
     27 O         142.2979  145.0235  161.1740 O.3     1  UNL1       -0.3802
     28 H         141.5890  145.6717  161.3089 H       1  UNL1        0.2105
@<TRIPOS>UNITY_ATOM_ATTR
12 1
charge 1
13 1
charge -1
@<TRIPOS>BOND
     1    22    23    1
     2    23    24    1
     3    23    25    1
     4    23    21    1
     5    21    26    1
     6    26    27    1
     7    21    17    1
     8    17    18   am
     9    18    19    2
    10    18     1    1
    11     1     2   ar
    12     2     3   ar
    13     3    10    1
    14    10    11   ar
    15    11    12   ar
    16    12    13    1
    17    12    14   ar
    18    14    15   ar
    19    15    16   ar
    20     3     4   ar
    21     4     5   ar
    22     5     6    1
    23     7     6    1
    24     7     8    1
    25     9     8    1
    26     5     1   ar
    27     9     7    1
    28    16    10   ar
    29     9     4    1
    30    27    28    1
    31    17    20    1
@<TRIPOS>MOLECULE
*****
 28 31 0 0 0
SMALL
GASTEIGER

@<TRIPOS>ATOM
      1 C         139.8343  141.1328  165.7572 C.ar    1  UNL1        0.1515
      2 N         140.1082  142.3238  164.8875 N.ar    1  UNL1       -0.1596
      3 N         139.8406  141.9304  163.4649 N.ar    1  UNL1       -0.2112
      4 C         139.4013  140.4962  163.4554 C.ar    1  UNL1        0.0596
      5 C         139.3974  140.0032  164.8721 C.ar    1  UNL1        0.0153
      6 C         138.9582  138.5690  164.8626 C.3     1  UNL1        0.0297
      7 C         138.6905  138.1756  163.4401 C.3     1  UNL1        0.0104
      8 C         138.5067  138.0777  161.9546 C.3     1  UNL1        0.0066
      9 C         138.9644  139.3666  162.5704 C.3     1  UNL1        0.0405
     10 C         139.9865  142.8157  162.2629 C.ar    1  UNL1        0.2362
     11 C         139.5565  144.2511  162.3319 C.ar    1  UNL1        0.3408
     12 N         139.7024  145.1364  161.1299 N.ar    1  UNL1       -0.1478
     13 O         139.2723  146.5718  161.1990 O.co2   1  UNL1       -0.6186
     14 C         140.2784  144.5864  159.8588 C.ar    1  UNL1        0.3227
     15 C         140.7084  143.1511  159.7897 C.ar    1  UNL1        0.1776
     16 N         140.5625  142.2657  160.9917 N.ar    1  UNL1       -0.2133
     17 N         140.7762  142.1256  167.9655 N.am    1  UNL1       -0.2987
     18 C         139.9730  141.0804  167.2498 C.2     1  UNL1        0.2651
     19 O         139.3084  139.9827  168.0266 O.2     1  UNL1       -0.2684
     20 H         141.2123  142.8460  167.4556 H       1  UNL1        0.1498
     21 CA        140.9148  142.0732  169.4582 C.3     1  UNL1        0.1010
     22 C         140.8642  140.6352  171.0169 C.3     1  UNL1        0.0017
     23 C         141.9201  141.1539  170.0863 C.3     1  UNL1        0.0189
     24 C         142.9759  141.6727  169.1557 C.3     1  UNL1        0.0017
     25 C         142.9253  140.2346  170.7144 C.3     1  UNL1        0.0017
     26 C         140.0483  142.9401  170.3228 C.3     1  UNL1        0.1565
     27 O         140.1398  144.4338  170.2181 O.3     1  UNL1       -0.3802
     28 H         141.0142  144.7260  170.5198 H       1  UNL1        0.2105
@<TRIPOS>UNITY_ATOM_ATTR
12 1
charge 1
13 1
charge -1
@<TRIPOS>BOND
     1    22    23    1
     2    23    24    1
     3    23    25    1
     4    23    21    1
     5    21    26    1
     6    26    27    1
     7    21    17    1
     8    17    18   am
     9    18    19    2
    10    18     1    1
    11     1     2   ar
    12     2     3   ar
    13     3    10    1
    14    10    11   ar
    15    11    12   ar
    16    12    13    1
    17    12    14   ar
    18    14    15   ar
    19    15    16   ar
    20     3     4   ar
    21     4     5   ar
    22     5     6    1
    23     7     6    1
    24     7     8    1
    25     9     8    1
    26     5     1   ar
    27     9     7    1
    28    16    10   ar
    29     9     4    1
    30    27    28    1
    31    17    20    1
@<TRIPOS>MOLECULE
*****
 28 31 0 0 0
SMALL
GASTEIGER

@<TRIPOS>ATOM
      1 C         139.7873  141.4212  165.8311 C.ar    1  UNL1        0.1515
      2 N         139.8460  140.3277  164.8060 N.ar    1  UNL1       -0.1596
      3 N         139.6247  140.9447  163.4568 N.ar    1  UNL1       -0.2112
      4 C         139.4291  142.4197  163.6481 C.ar    1  UNL1        0.0596
      5 C         139.5296  142.7141  165.1155 C.ar    1  UNL1        0.0153
      6 C         139.3341  144.1889  165.3067 C.3     1  UNL1        0.0297
      7 C         139.1128  144.8060  163.9576 C.3     1  UNL1        0.0104
      8 C         138.9241  145.1288  162.5050 C.3     1  UNL1        0.0066
      9 C         139.1715  143.7125  162.9325 C.3     1  UNL1        0.0405
     10 C         139.6027  140.2152  162.1464 C.ar    1  UNL1        0.2362
     11 C         138.5412  140.5255  161.1329 C.ar    1  UNL1        0.3408
     12 N         138.5191  139.7960  159.8226 N.ar    1  UNL1       -0.1478
     13 O         137.4576  140.1063  158.8091 O.co2   1  UNL1       -0.6186
     14 C         139.5585  138.7561  159.5255 C.ar    1  UNL1        0.3227
     15 C         140.6200  138.4458  160.5388 C.ar    1  UNL1        0.1776
     16 N         140.6421  139.1753  161.8493 N.ar    1  UNL1       -0.2133
     17 N         140.7511  142.2536  168.0955 N.am    1  UNL1       -0.2987
     18 C         139.9565  141.2516  167.3118 C.2     1  UNL1        0.2651
     19 O         139.3309  140.0799  168.0088 O.2     1  UNL1       -0.2684
     20 H         141.1617  143.0226  167.6381 H       1  UNL1        0.1498
     21 CA        140.9203  142.0840  169.5763 C.3     1  UNL1        0.1010
     22 C         142.9650  141.6822  169.1786 C.3     1  UNL1        0.0017
     23 C         141.9341  141.1154  170.1093 C.3     1  UNL1        0.0189
     24 C         140.9033  140.5486  171.0400 C.3     1  UNL1        0.0017
     25 C         142.9479  140.1468  170.6423 C.3     1  UNL1        0.0017
     26 C         140.0757  142.8830  170.5240 C.3     1  UNL1        0.1565
     27 O         139.9636  144.3697  170.3579 O.3     1  UNL1       -0.3802
     28 H         140.8268  144.7796  170.5246 H       1  UNL1        0.2105
@<TRIPOS>UNITY_ATOM_ATTR
12 1
charge 1
13 1
charge -1
@<TRIPOS>BOND
     1    22    23    1
     2    23    24    1
     3    23    25    1
     4    23    21    1
     5    21    26    1
     6    26    27    1
     7    21    17    1
     8    17    18   am
     9    18    19    2
    10    18     1    1
    11     1     2   ar
    12     2     3   ar
    13     3    10    1
    14    10    11   ar
    15    11    12   ar
    16    12    13    1
    17    12    14   ar
    18    14    15   ar
    19    15    16   ar
    20     3     4   ar
    21     4     5   ar
    22     5     6    1
    23     7     6    1
    24     7     8    1
    25     9     8    1
    26     5     1   ar
    27     9     7    1
    28    16    10   ar
    29     9     4    1
    30    27    28    1
    31    17    20    1
@<TRIPOS>MOLECULE
*****
 28 31 0 0 0
SMALL
GASTEIGER

@<TRIPOS>ATOM
      1 C         142.6974  142.1336  165.3303 C.ar    1  UNL1        0.1515
      2 N         142.1016  143.2189  164.4837 N.ar    1  UNL1       -0.1596
      3 N         142.2665  142.8279  163.0449 N.ar    1  UNL1       -0.2112
      4 C         142.9644  141.5007  163.0025 C.ar    1  UNL1        0.0596
      5 C         143.2307  141.0717  164.4149 C.ar    1  UNL1        0.0153
      6 C         143.9286  139.7446  164.3724 C.3     1  UNL1        0.0297
      7 C         144.0936  139.3535  162.9337 C.3     1  UNL1        0.0104
      8 C         144.1136  139.2346  161.4386 C.3     1  UNL1        0.0066
      9 C         143.4977  140.4388  162.0870 C.3     1  UNL1        0.0405
     10 C         141.8133  143.6240  161.8572 C.ar    1  UNL1        0.2362
     11 C         140.7598  144.6795  162.0195 C.ar    1  UNL1        0.3408
     12 N         140.3066  145.4756  160.8319 N.ar    1  UNL1       -0.1478
     13 O         139.2531  146.5310  160.9942 O.co2   1  UNL1       -0.6186
     14 C         140.9067  145.2164  159.4819 C.ar    1  UNL1        0.3227
     15 C         141.9602  144.1610  159.3195 C.ar    1  UNL1        0.1776
     16 N         142.4135  143.3648  160.5072 N.ar    1  UNL1       -0.2133
     17 N         141.7037  141.3728  167.6071 N.am    1  UNL1       -0.2987
     18 C         142.7507  142.1136  166.8293 C.2     1  UNL1        0.2651
     19 O         143.8510  142.8344  167.5502 O.2     1  UNL1       -0.2684
     20 H         140.9816  140.8998  167.1338 H       1  UNL1        0.1498
     21 CA        141.7570  141.3528  169.1060 C.3     1  UNL1        0.1010
     22 C         141.7498  143.2177  170.1170 C.3     1  UNL1        0.0017
     23 C         140.7464  142.1235  169.9028 C.3     1  UNL1        0.0189
     24 C         139.7430  141.0293  169.6885 C.3     1  UNL1        0.0017
     25 C         139.7358  142.8942  170.6995 C.3     1  UNL1        0.0017
     26 C         142.8208  140.5621  169.8081 C.3     1  UNL1        0.1565
     27 O         142.6587  140.2075  171.2567 O.3     1  UNL1       -0.3802
     28 H         142.6780  141.0164  171.7917 H       1  UNL1        0.2105
@<TRIPOS>UNITY_ATOM_ATTR
12 1
charge 1
13 1
charge -1
@<TRIPOS>BOND
     1    22    23    1
     2    23    24    1
     3    23    25    1
     4    23    21    1
     5    21    26    1
     6    26    27    1
     7    21    17    1
     8    17    18   am
     9    18    19    2
    10    18     1    1
    11     1     2   ar
    12     2     3   ar
    13     3    10    1
    14    10    11   ar
    15    11    12   ar
    16    12    13    1
    17    12    14   ar
    18    14    15   ar
    19    15    16   ar
    20     3     4   ar
    21     4     5   ar
    22     5     6    1
    23     7     6    1
    24     7     8    1
    25     9     8    1
    26     5     1   ar
    27     9     7    1
    28    16    10   ar
    29     9     4    1
    30    27    28    1
    31    17    20    1
@<TRIPOS>MOLECULE
*****
 28 31 0 0 0
SMALL
GASTEIGER

@<TRIPOS>ATOM
      1 C         141.8304  139.7437  165.4654 C.ar    1  UNL1        0.1515
      2 N         142.7292  140.3221  164.4130 N.ar    1  UNL1       -0.1596
      3 N         142.1325  140.0119  163.0722 N.ar    1  UNL1       -0.2112
      4 C         140.8648  139.2418  163.2960 C.ar    1  UNL1        0.0596
      5 C         140.6781  139.0761  164.7751 C.ar    1  UNL1        0.0153
      6 C         139.4105  138.3061  164.9988 C.3     1  UNL1        0.0297
      7 C         138.8137  137.9959  163.6580 C.3     1  UNL1        0.0104
      8 C         138.4668  137.8399  162.2071 C.3     1  UNL1        0.0066
      9 C         139.7125  138.5742  162.6056 C.3     1  UNL1        0.0405
     10 C         142.7031  140.4031  161.7413 C.ar    1  UNL1        0.2362
     11 C         142.8444  139.3779  160.6553 C.ar    1  UNL1        0.3408
     12 N         143.4150  139.7689  159.3244 N.ar    1  UNL1       -0.1478
     13 O         143.5562  138.7438  158.2385 O.co2   1  UNL1       -0.6186
     14 C         143.8443  141.1851  159.0793 C.ar    1  UNL1        0.3227
     15 C         143.7031  142.2103  160.1652 C.ar    1  UNL1        0.1776
     16 N         143.1324  141.8192  161.4962 N.ar    1  UNL1       -0.2133
     17 N         141.1807  140.7126  167.7868 N.am    1  UNL1       -0.2987
     18 C         142.0459  139.8197  166.9479 C.2     1  UNL1        0.2651
     19 O         143.1268  139.0025  167.5914 O.2     1  UNL1       -0.2684
     20 H         140.4713  141.2489  167.3644 H       1  UNL1        0.1498
     21 CA        141.3962  140.7885  169.2693 C.3     1  UNL1        0.1010
     22 C         143.2570  141.0280  170.2593 C.3     1  UNL1        0.0017
     23 C         142.1417  141.9483  169.8604 C.3     1  UNL1        0.0189
     24 C         141.0263  142.8685  169.4615 C.3     1  UNL1        0.0017
     25 C         142.8871  143.1080  170.4515 C.3     1  UNL1        0.0017
     26 C         140.8664  139.7047  170.1607 C.3     1  UNL1        0.1565
     27 O         140.1258  140.0609  171.4156 O.3     1  UNL1       -0.3802
     28 H         140.7306  140.4989  172.0347 H       1  UNL1        0.2105
@<TRIPOS>UNITY_ATOM_ATTR
12 1
charge 1
13 1
charge -1
@<TRIPOS>BOND
     1    22    23    1
     2    23    24    1
     3    23    25    1
     4    23    21    1
     5    21    26    1
     6    26    27    1
     7    21    17    1
     8    17    18   am
     9    18    19    2
    10    18     1    1
    11     1     2   ar
    12     2     3   ar
    13     3    10    1
    14    10    11   ar
    15    11    12   ar
    16    12    13    1
    17    12    14   ar
    18    14    15   ar
    19    15    16   ar
    20     3     4   ar
    21     4     5   ar
    22     5     6    1
    23     7     6    1
    24     7     8    1
    25     9     8    1
    26     5     1   ar
    27     9     7    1
    28    16    10   ar
    29     9     4    1
    30    27    28    1
    31    17    20    1
@<TRIPOS>MOLECULE
*****
 28 31 0 0 0
SMALL
GASTEIGER

@<TRIPOS>ATOM
      1 C         141.6401  142.6649  165.6017 C.ar    1  UNL1        0.1515
      2 N         142.5474  142.0374  164.5853 N.ar    1  UNL1       -0.1596
      3 N         142.1267  142.5189  163.2283 N.ar    1  UNL1       -0.2112
      4 C         140.9594  143.4440  163.4062 C.ar    1  UNL1        0.0596
      5 C         140.6587  143.5342  164.8730 C.ar    1  UNL1        0.0153
      6 C         139.4914  144.4593  165.0508 C.3     1  UNL1        0.0297
      7 C         139.0707  144.9409  163.6939 C.3     1  UNL1        0.0104
      8 C         138.8859  145.2422  162.2361 C.3     1  UNL1        0.0066
      9 C         139.9779  144.3134  162.6775 C.3     1  UNL1        0.0405
     10 C         142.7617  142.1416  161.9229 C.ar    1  UNL1        0.2362
     11 C         143.1853  140.7238  161.6769 C.ar    1  UNL1        0.3408
     12 N         143.8203  140.3464  160.3715 N.ar    1  UNL1       -0.1478
     13 O         144.2439  138.9286  160.1256 O.co2   1  UNL1       -0.6186
     14 C         144.0317  141.3868  159.3118 C.ar    1  UNL1        0.3227
     15 C         143.6081  142.8045  159.5577 C.ar    1  UNL1        0.1776
     16 N         142.9731  143.1820  160.8632 N.ar    1  UNL1       -0.2133
     17 N         140.4380  142.4008  167.8897 N.am    1  UNL1       -0.2987
     18 C         141.7032  142.4592  167.0862 C.2     1  UNL1        0.2651
     19 O         143.0317  142.3119  167.7671 O.2     1  UNL1       -0.2684
     20 H         139.5661  142.4975  167.4427 H       1  UNL1        0.1498
     21 CA        140.5011  142.1951  169.3741 C.3     1  UNL1        0.1010
     22 C         141.9002  141.3810  170.7452 C.3     1  UNL1        0.0017
     23 C         140.7679  140.8282  169.9313 C.3     1  UNL1        0.0189
     24 C         139.6357  140.2754  169.1174 C.3     1  UNL1        0.0017
     25 C         141.0348  139.4613  170.4884 C.3     1  UNL1        0.0017
     26 C         140.2973  143.3563  170.3015 C.3     1  UNL1        0.1565
     27 O         139.1277  143.3698  171.2407 O.3     1  UNL1       -0.3802
     28 H         138.3042  143.4228  170.7309 H       1  UNL1        0.2105
@<TRIPOS>UNITY_ATOM_ATTR
12 1
charge 1
13 1
charge -1
@<TRIPOS>BOND
     1    22    23    1
     2    23    24    1
     3    23    25    1
     4    23    21    1
     5    21    26    1
     6    26    27    1
     7    21    17    1
     8    17    18   am
     9    18    19    2
    10    18     1    1
    11     1     2   ar
    12     2     3   ar
    13     3    10    1
    14    10    11   ar
    15    11    12   ar
    16    12    13    1
    17    12    14   ar
    18    14    15   ar
    19    15    16   ar
    20     3     4   ar
    21     4     5   ar
    22     5     6    1
    23     7     6    1
    24     7     8    1
    25     9     8    1
    26     5     1   ar
    27     9     7    1
    28    16    10   ar
    29     9     4    1
    30    27    28    1
    31    17    20    1
