@<TRIPOS>MOLECULE
*****
 26 28 0 0 0
SMALL
GASTEIGER

@<TRIPOS>ATOM
      1 N         141.3252  142.1956  167.0402 N.ar    1  UNL1       -0.3241
      2 C         141.2288  142.6730  168.4589 C.ar    1  UNL1        0.0802
      3 C         140.3509  141.9487  169.4359 C.ar    1  UNL1        0.0701
      4 C         139.5694  140.7470  168.9943 C.ar    1  UNL1        0.1996
      5 O         138.6915  140.0227  169.9714 O.2     1  UNL1       -0.2864
      6 C         139.6658  140.2696  167.5756 C.ar    1  UNL1        0.0593
      7 C         138.8843  139.0678  167.1339 C.ar    1  UNL1        0.0357
      8 C         138.9807  138.5904  165.7152 C.ar    1  UNL1        0.1557
      9 F         138.1992  137.3886  165.2735 F       1  UNL1       -0.2028
     10 C         139.8586  139.3147  164.7382 C.ar    1  UNL1        0.1050
     11 C         140.6401  140.5164  165.1798 C.ar    1  UNL1        0.1712
     12 F         141.5181  141.2407  164.2027 F       1  UNL1       -0.2013
     13 C         140.5437  140.9939  166.5986 C.ar    1  UNL1        0.0922
     14 N         139.9550  138.8372  163.3194 N.pl3   1  UNL1       -0.3012
     15 C         138.7156  138.7150  162.4834 C.3     1  UNL1        0.1080
     16 C         138.8120  138.2376  161.0647 C.3     1  UNL1        0.0903
     17 N         140.1477  137.8823  160.4820 N.3     1  UNL1       -0.2957
     18 C         141.3871  138.0045  161.3181 C.3     1  UNL1        0.0741
     19 C         142.7229  137.6491  160.7354 C.3     1  UNL1        0.0189
     20 C         141.2908  138.4819  162.7368 C.3     1  UNL1        0.1066
     21 H         140.2821  138.4808  159.6671 H       1  UNL1        0.1233
     22 C         140.2545  142.4262  170.8547 C.2     1  UNL1        0.0774
     23 O         139.1258  143.3230  171.2692 O.co2   1  UNL1       -0.5444
     24 O         141.2868  142.0068  171.8589 O.co2   1  UNL1       -0.5444
     25 C         143.6917  142.7441  166.1190 C.3     1  UNL1        0.0265
     26 C         142.2032  142.9199  166.0631 C.3     1  UNL1        0.1062
@<TRIPOS>UNITY_ATOM_ATTR
23 1
charge -1
@<TRIPOS>BOND
     1    25    26    1
     2    26     1    1
     3     1     2   ar
     4     2     3   ar
     5     3    22    1
     6    22    23   ar
     7    22    24   ar
     8     3     4   ar
     9     4     5    2
    10     4     6   ar
    11     6     7   ar
    12     7     8   ar
    13     8     9    1
    14     8    10   ar
    15    10    14    1
    16    14    15    1
    17    15    16    1
    18    16    17    1
    19    17    18    1
    20    18    19    1
    21    18    20    1
    22    10    11   ar
    23    11    12    1
    24    11    13   ar
    25    13     1   ar
    26    13     6   ar
    27    20    14    1
    28    17    21    1
@<TRIPOS>MOLECULE
*****
 26 28 0 0 0
SMALL
GASTEIGER

@<TRIPOS>ATOM
      1 N         139.9984  140.0755  167.1711 N.ar    1  UNL1       -0.3241
      2 C         139.6354  140.5153  168.5584 C.ar    1  UNL1        0.0802
      3 C         140.5143  141.4844  169.2921 C.ar    1  UNL1        0.0701
      4 C         141.7562  142.0138  168.6384 C.ar    1  UNL1        0.1996
      5 O         142.6351  142.9829  169.3721 O.2     1  UNL1       -0.2864
      6 C         142.1193  141.5740  167.2511 C.ar    1  UNL1        0.0593
      7 C         143.3613  142.1034  166.5974 C.ar    1  UNL1        0.0357
      8 C         143.7243  141.6636  165.2100 C.ar    1  UNL1        0.1557
      9 F         144.9663  142.1930  164.5563 F       1  UNL1       -0.2028
     10 C         142.8454  140.6945  164.4764 C.ar    1  UNL1        0.1050
     11 C         141.6035  140.1651  165.1300 C.ar    1  UNL1        0.1712
     12 F         140.7246  139.1960  164.3963 F       1  UNL1       -0.2013
     13 C         141.2404  140.6049  166.5174 C.ar    1  UNL1        0.0922
     14 N         143.2085  140.2547  163.0889 N.pl3   1  UNL1       -0.3012
     15 C         143.6399  138.8399  162.8394 C.3     1  UNL1        0.1080
     16 C         144.0030  138.4001  161.4521 C.3     1  UNL1        0.0903
     17 N         143.9347  139.3751  160.3143 N.3     1  UNL1       -0.2957
     18 C         143.5033  140.7899  160.5638 C.3     1  UNL1        0.0741
     19 C         143.4350  141.7649  159.4259 C.3     1  UNL1        0.0189
     20 C         143.1402  141.2297  161.9511 C.3     1  UNL1        0.1066
     21 H         143.2852  138.9854  159.6312 H       1  UNL1        0.1233
     22 C         140.1512  141.9242  170.6795 C.2     1  UNL1        0.0774
     23 O         139.2351  143.0950  170.8795 O.co2   1  UNL1       -0.5444
     24 O         140.7042  141.1931  171.8668 O.co2   1  UNL1       -0.5444
     25 C         137.8005  138.6981  167.0234 C.3     1  UNL1        0.0265
     26 C         139.1195  139.1064  166.4374 C.3     1  UNL1        0.1062
@<TRIPOS>UNITY_ATOM_ATTR
23 1
charge -1
@<TRIPOS>BOND
     1    25    26    1
     2    26     1    1
     3     1     2   ar
     4     2     3   ar
     5     3    22    1
     6    22    23   ar
     7    22    24   ar
     8     3     4   ar
     9     4     5    2
    10     4     6   ar
    11     6     7   ar
    12     7     8   ar
    13     8     9    1
    14     8    10   ar
    15    10    14    1
    16    14    15    1
    17    15    16    1
    18    16    17    1
    19    17    18    1
    20    18    19    1
    21    18    20    1
    22    10    11   ar
    23    11    12    1
    24    11    13   ar
    25    13     1   ar
    26    13     6   ar
    27    20    14    1
    28    17    21    1
@<TRIPOS>MOLECULE
*****
 26 28 0 0 0
SMALL
GASTEIGER

@<TRIPOS>ATOM
      1 N         141.6828  140.6996  166.7255 N.ar    1  UNL1       -0.3241
      2 C         141.2040  140.9308  168.1281 C.ar    1  UNL1        0.0802
      3 C         139.9083  140.3301  168.5869 C.ar    1  UNL1        0.0701
      4 C         139.0914  139.4984  167.6431 C.ar    1  UNL1        0.1996
      5 O         137.7958  138.8978  168.1018 O.2     1  UNL1       -0.2864
      6 C         139.5702  139.2672  166.2405 C.ar    1  UNL1        0.0593
      7 C         138.7533  138.4354  165.2966 C.ar    1  UNL1        0.0357
      8 C         139.2321  138.2043  163.8940 C.ar    1  UNL1        0.1557
      9 F         138.4152  137.3725  162.9501 F       1  UNL1       -0.2028
     10 C         140.5278  138.8049  163.4353 C.ar    1  UNL1        0.1050
     11 C         141.3447  139.6366  164.3791 C.ar    1  UNL1        0.1712
     12 F         142.6404  140.2373  163.9203 F       1  UNL1       -0.2013
     13 C         140.8659  139.8678  165.7817 C.ar    1  UNL1        0.0922
     14 N         141.0066  138.5737  162.0326 N.pl3   1  UNL1       -0.3012
     15 C         142.3021  137.8573  161.7908 C.3     1  UNL1        0.1080
     16 C         142.7809  137.6261  160.3883 C.3     1  UNL1        0.0903
     17 N         141.9642  138.1113  159.2274 N.3     1  UNL1       -0.2957
     18 C         140.6687  138.8277  159.4692 C.3     1  UNL1        0.0741
     19 C         139.8520  139.3129  158.3083 C.3     1  UNL1        0.0189
     20 C         140.1899  139.0589  160.8718 C.3     1  UNL1        0.1066
     21 H         141.7466  137.2934  158.6582 H       1  UNL1        0.1233
     22 C         139.4295  140.5613  169.9895 C.2     1  UNL1        0.0774
     23 O         139.1292  141.9537  170.4596 O.co2   1  UNL1       -0.5444
     24 O         139.2511  139.4001  170.9221 O.co2   1  UNL1       -0.5444
     25 C         143.0566  142.7648  165.9525 C.3     1  UNL1        0.0265
     26 C         142.9785  141.3002  166.2668 C.3     1  UNL1        0.1062
@<TRIPOS>UNITY_ATOM_ATTR
23 1
charge -1
@<TRIPOS>BOND
     1    25    26    1
     2    26     1    1
     3     1     2   ar
     4     2     3   ar
     5     3    22    1
     6    22    23   ar
     7    22    24   ar
     8     3     4   ar
     9     4     5    2
    10     4     6   ar
    11     6     7   ar
    12     7     8   ar
    13     8     9    1
    14     8    10   ar
    15    10    14    1
    16    14    15    1
    17    15    16    1
    18    16    17    1
    19    17    18    1
    20    18    19    1
    21    18    20    1
    22    10    11   ar
    23    11    12    1
    24    11    13   ar
    25    13     1   ar
    26    13     6   ar
    27    20    14    1
    28    17    21    1
@<TRIPOS>MOLECULE
*****
 26 28 0 0 0
SMALL
GASTEIGER

@<TRIPOS>ATOM
      1 N         141.4513  142.2015  166.9423 N.ar    1  UNL1       -0.3241
      2 C         141.3843  142.5317  168.4040 C.ar    1  UNL1        0.0802
      3 C         140.4922  141.7383  169.3120 C.ar    1  UNL1        0.0701
      4 C         139.6669  140.6147  168.7584 C.ar    1  UNL1        0.1996
      5 O         138.7748  139.8213  169.6664 O.2     1  UNL1       -0.2864
      6 C         139.7339  140.2845  167.2968 C.ar    1  UNL1        0.0593
      7 C         138.9086  139.1609  166.7431 C.ar    1  UNL1        0.0357
      8 C         138.9756  138.8307  165.2814 C.ar    1  UNL1        0.1557
      9 F         138.1504  137.7071  164.7277 F       1  UNL1       -0.2028
     10 C         139.8678  139.6241  164.3734 C.ar    1  UNL1        0.1050
     11 C         140.6930  140.7477  164.9270 C.ar    1  UNL1        0.1712
     12 F         141.5852  141.5411  164.0190 F       1  UNL1       -0.2013
     13 C         140.6261  141.0779  166.3887 C.ar    1  UNL1        0.0922
     14 N         139.9347  139.2939  162.9117 N.pl3   1  UNL1       -0.3012
     15 C         141.0310  138.4121  162.3915 C.3     1  UNL1        0.1080
     16 C         141.0980  138.0818  160.9298 C.3     1  UNL1        0.0903
     17 N         140.0687  138.6334  159.9884 N.3     1  UNL1       -0.2957
     18 C         138.9724  139.5152  160.5086 C.3     1  UNL1        0.0741
     19 C         137.9431  140.0668  159.5671 C.3     1  UNL1        0.0189
     20 C         138.9054  139.8454  161.9703 C.3     1  UNL1        0.1066
     21 H         139.6175  137.8338  159.5441 H       1  UNL1        0.1233
     22 C         140.4252  142.0685  170.7737 C.2     1  UNL1        0.0774
     23 O         141.3218  141.3591  171.7447 O.co2   1  UNL1       -0.5444
     24 O         139.4617  143.1082  171.2644 O.co2   1  UNL1       -0.5444
     25 C         143.8315  142.8192  166.1039 C.3     1  UNL1        0.0265
     26 C         142.3435  142.9949  166.0343 C.3     1  UNL1        0.1062
@<TRIPOS>UNITY_ATOM_ATTR
23 1
charge -1
@<TRIPOS>BOND
     1    25    26    1
     2    26     1    1
     3     1     2   ar
     4     2     3   ar
     5     3    22    1
     6    22    23   ar
     7    22    24   ar
     8     3     4   ar
     9     4     5    2
    10     4     6   ar
    11     6     7   ar
    12     7     8   ar
    13     8     9    1
    14     8    10   ar
    15    10    14    1
    16    14    15    1
    17    15    16    1
    18    16    17    1
    19    17    18    1
    20    18    19    1
    21    18    20    1
    22    10    11   ar
    23    11    12    1
    24    11    13   ar
    25    13     1   ar
    26    13     6   ar
    27    20    14    1
    28    17    21    1
@<TRIPOS>MOLECULE
*****
 26 28 0 0 0
SMALL
GASTEIGER

@<TRIPOS>ATOM
      1 N         142.2882  141.0526  166.8395 N.ar    1  UNL1       -0.3241
      2 C         142.6554  141.2535  168.2799 C.ar    1  UNL1        0.0802
      3 C         141.9193  142.2650  169.1075 C.ar    1  UNL1        0.0701
      4 C         140.8159  143.0756  168.4948 C.ar    1  UNL1        0.1996
      5 O         140.0798  144.0871  169.3224 O.2     1  UNL1       -0.2864
      6 C         140.4487  142.8746  167.0544 C.ar    1  UNL1        0.0593
      7 C         139.3453  143.6852  166.4415 C.ar    1  UNL1        0.0357
      8 C         138.9781  143.4843  165.0012 C.ar    1  UNL1        0.1557
      9 F         137.8747  144.2949  164.3883 F       1  UNL1       -0.2028
     10 C         139.7142  142.4728  164.1736 C.ar    1  UNL1        0.1050
     11 C         140.8176  141.6622  164.7863 C.ar    1  UNL1        0.1712
     12 F         141.5538  140.6507  163.9587 F       1  UNL1       -0.2013
     13 C         141.1849  141.8631  166.2268 C.ar    1  UNL1        0.0922
     14 N         139.3470  142.2719  162.7331 N.pl3   1  UNL1       -0.3012
     15 C         139.7833  143.2697  161.7017 C.3     1  UNL1        0.1080
     16 C         139.4161  143.0688  160.2613 C.3     1  UNL1        0.0903
     17 N         138.6125  141.8701  159.8523 N.3     1  UNL1       -0.2957
     18 C         138.1762  140.8723  160.8838 C.3     1  UNL1        0.0741
     19 C         137.3726  139.6735  160.4748 C.3     1  UNL1        0.0189
     20 C         138.5434  141.0731  162.3242 C.3     1  UNL1        0.1066
     21 H         139.1712  141.3607  159.1677 H       1  UNL1        0.1233
     22 C         142.2865  142.4660  170.5480 C.2     1  UNL1        0.0774
     23 O         141.8122  141.4923  171.5858 O.co2   1  UNL1       -0.5444
     24 O         143.1282  143.6405  170.9506 O.co2   1  UNL1       -0.5444
     25 C         143.2709  138.6645  166.5543 C.3     1  UNL1        0.0265
     26 C         143.0244  140.0411  166.0119 C.3     1  UNL1        0.1062
@<TRIPOS>UNITY_ATOM_ATTR
23 1
charge -1
@<TRIPOS>BOND
     1    25    26    1
     2    26     1    1
     3     1     2   ar
     4     2     3   ar
     5     3    22    1
     6    22    23   ar
     7    22    24   ar
     8     3     4   ar
     9     4     5    2
    10     4     6   ar
    11     6     7   ar
    12     7     8   ar
    13     8     9    1
    14     8    10   ar
    15    10    14    1
    16    14    15    1
    17    15    16    1
    18    16    17    1
    19    17    18    1
    20    18    19    1
    21    18    20    1
    22    10    11   ar
    23    11    12    1
    24    11    13   ar
    25    13     1   ar
    26    13     6   ar
    27    20    14    1
    28    17    21    1
@<TRIPOS>MOLECULE
*****
 26 28 0 0 0
SMALL
GASTEIGER

@<TRIPOS>ATOM
      1 N         142.3140  140.1852  165.6771 N.ar    1  UNL1       -0.3241
      2 C         142.4896  139.6843  167.0801 C.ar    1  UNL1        0.0802
      3 C         141.8188  140.3934  168.2191 C.ar    1  UNL1        0.0701
      4 C         140.9725  141.6033  167.9551 C.ar    1  UNL1        0.1996
      5 O         140.3017  142.3124  169.0941 O.2     1  UNL1       -0.2864
      6 C         140.7969  142.1042  166.5522 C.ar    1  UNL1        0.0593
      7 C         139.9506  143.3142  166.2882 C.ar    1  UNL1        0.0357
      8 C         139.7750  143.8151  164.8853 C.ar    1  UNL1        0.1557
      9 F         138.9286  145.0251  164.6213 F       1  UNL1       -0.2028
     10 C         140.4457  143.1060  163.7463 C.ar    1  UNL1        0.1050
     11 C         141.2921  141.8961  164.0102 C.ar    1  UNL1        0.1712
     12 F         141.9628  141.1870  162.8712 F       1  UNL1       -0.2013
     13 C         141.4677  141.3951  165.4132 C.ar    1  UNL1        0.0922
     14 N         140.2701  143.6070  162.3433 N.pl3   1  UNL1       -0.3012
     15 C         140.8753  144.9169  161.9334 C.3     1  UNL1        0.1080
     16 C         140.6998  145.4178  160.5305 C.3     1  UNL1        0.0903
     17 N         139.9190  144.6089  159.5375 N.3     1  UNL1       -0.2957
     18 C         139.3138  143.2991  159.9474 C.3     1  UNL1        0.0741
     19 C         138.5331  142.4902  158.9543 C.3     1  UNL1        0.0189
     20 C         139.4894  142.7981  161.3503 C.3     1  UNL1        0.1066
     21 H         140.5477  144.4120  158.7589 H       1  UNL1        0.1233
     22 C         141.9944  139.8924  169.6220 C.2     1  UNL1        0.0774
     23 O         143.3354  139.9818  170.2880 O.co2   1  UNL1       -0.5444
     24 O         140.8289  139.3021  170.3590 O.co2   1  UNL1       -0.5444
     25 C         144.4788  139.5102  164.4090 C.3     1  UNL1        0.0265
     26 C         142.9847  139.4761  164.5381 C.3     1  UNL1        0.1062
@<TRIPOS>UNITY_ATOM_ATTR
23 1
charge -1
@<TRIPOS>BOND
     1    25    26    1
     2    26     1    1
     3     1     2   ar
     4     2     3   ar
     5     3    22    1
     6    22    23   ar
     7    22    24   ar
     8     3     4   ar
     9     4     5    2
    10     4     6   ar
    11     6     7   ar
    12     7     8   ar
    13     8     9    1
    14     8    10   ar
    15    10    14    1
    16    14    15    1
    17    15    16    1
    18    16    17    1
    19    17    18    1
    20    18    19    1
    21    18    20    1
    22    10    11   ar
    23    11    12    1
    24    11    13   ar
    25    13     1   ar
    26    13     6   ar
    27    20    14    1
    28    17    21    1
@<TRIPOS>MOLECULE
*****
 26 28 0 0 0
SMALL
GASTEIGER

@<TRIPOS>ATOM
      1 N         140.3065  141.3720  166.6885 N.ar    1  UNL1       -0.3241
      2 C         140.0194  141.2551  168.1561 C.ar    1  UNL1        0.0802
      3 C         140.9184  140.4350  169.0332 C.ar    1  UNL1        0.0701
      4 C         142.1045  139.7319  168.4427 C.ar    1  UNL1        0.1996
      5 O         143.0035  138.9119  169.3198 O.2     1  UNL1       -0.2864
      6 C         142.3916  139.8489  166.9752 C.ar    1  UNL1        0.0593
      7 C         143.5778  139.1458  166.3846 C.ar    1  UNL1        0.0357
      8 C         143.8649  139.2627  164.9170 C.ar    1  UNL1        0.1557
      9 F         145.0511  138.5596  164.3265 F       1  UNL1       -0.2028
     10 C         142.9659  140.0828  164.0399 C.ar    1  UNL1        0.1050
     11 C         141.7798  140.7859  164.6304 C.ar    1  UNL1        0.1712
     12 F         140.8808  141.6059  163.7533 F       1  UNL1       -0.2013
     13 C         141.4926  140.6689  166.0981 C.ar    1  UNL1        0.0922
     14 N         143.2531  140.1997  162.5723 N.pl3   1  UNL1       -0.3012
     15 C         143.8793  141.4493  162.0278 C.3     1  UNL1        0.1080
     16 C         144.1665  141.5662  160.5602 C.3     1  UNL1        0.0903
     17 N         143.8274  140.4336  159.6371 N.3     1  UNL1       -0.2957
     18 C         143.2012  139.1840  160.1816 C.3     1  UNL1        0.0741
     19 C         142.8622  138.0514  159.2584 C.3     1  UNL1        0.0189
     20 C         142.9141  139.0671  161.6491 C.3     1  UNL1        0.1066
     21 H         144.6968  140.1535  159.1830 H       1  UNL1        0.1233
     22 C         140.6312  140.3181  170.5009 C.2     1  UNL1        0.0774
     23 O         141.5371  140.9787  171.4973 O.co2   1  UNL1       -0.5444
     24 O         139.4381  139.5406  170.9720 O.co2   1  UNL1       -0.5444
     25 C         139.5436  143.6857  165.7857 C.3     1  UNL1        0.0265
     26 C         139.4075  142.1921  165.8114 C.3     1  UNL1        0.1062
@<TRIPOS>UNITY_ATOM_ATTR
23 1
charge -1
@<TRIPOS>BOND
     1    25    26    1
     2    26     1    1
     3     1     2   ar
     4     2     3   ar
     5     3    22    1
     6    22    23   ar
     7    22    24   ar
     8     3     4   ar
     9     4     5    2
    10     4     6   ar
    11     6     7   ar
    12     7     8   ar
    13     8     9    1
    14     8    10   ar
    15    10    14    1
    16    14    15    1
    17    15    16    1
    18    16    17    1
    19    17    18    1
    20    18    19    1
    21    18    20    1
    22    10    11   ar
    23    11    12    1
    24    11    13   ar
    25    13     1   ar
    26    13     6   ar
    27    20    14    1
    28    17    21    1
@<TRIPOS>MOLECULE
*****
 26 28 0 0 0
SMALL
GASTEIGER

@<TRIPOS>ATOM
      1 N         139.8438  140.6124  166.3155 N.ar    1  UNL1       -0.3241
      2 C         139.8711  140.0561  167.7082 C.ar    1  UNL1        0.0802
      3 C         141.0298  140.3551  168.6126 C.ar    1  UNL1        0.0701
      4 C         142.1611  141.2105  168.1243 C.ar    1  UNL1        0.1996
      5 O         143.3198  141.5095  169.0288 O.2     1  UNL1       -0.2864
      6 C         142.1337  141.7668  166.7316 C.ar    1  UNL1        0.0593
      7 C         143.2651  142.6222  166.2433 C.ar    1  UNL1        0.0357
      8 C         143.2377  143.1785  164.8505 C.ar    1  UNL1        0.1557
      9 F         144.3690  144.0339  164.3622 F       1  UNL1       -0.2028
     10 C         142.0790  142.8794  163.9461 C.ar    1  UNL1        0.1050
     11 C         140.9477  142.0241  164.4344 C.ar    1  UNL1        0.1712
     12 F         139.7890  141.7250  163.5299 F       1  UNL1       -0.2013
     13 C         140.9751  141.4677  165.8272 C.ar    1  UNL1        0.0922
     14 N         142.0517  143.4358  162.5533 N.pl3   1  UNL1       -0.3012
     15 C         141.1305  144.5709  162.2171 C.3     1  UNL1        0.1080
     16 C         141.1032  145.1273  160.8244 C.3     1  UNL1        0.0903
     17 N         141.9969  144.5485  159.7679 N.3     1  UNL1       -0.2957
     18 C         142.9181  143.4134  160.1041 C.3     1  UNL1        0.0741
     19 C         143.8119  142.8347  159.0476 C.3     1  UNL1        0.0189
     20 C         142.9455  142.8571  161.4968 C.3     1  UNL1        0.1066
     21 H         142.5819  145.3113  159.4269 H       1  UNL1        0.1233
     22 C         141.0572  139.7988  170.0054 C.2     1  UNL1        0.0774
     23 O         142.0811  138.7693  170.3819 O.co2   1  UNL1       -0.5444
     24 O         140.0605  140.2719  171.0217 O.co2   1  UNL1       -0.5444
     25 C         138.4919  138.9265  164.8732 C.3     1  UNL1        0.0265
     26 C         138.6851  140.3133  165.4110 C.3     1  UNL1        0.1062
@<TRIPOS>UNITY_ATOM_ATTR
23 1
charge -1
@<TRIPOS>BOND
     1    25    26    1
     2    26     1    1
     3     1     2   ar
     4     2     3   ar
     5     3    22    1
     6    22    23   ar
     7    22    24   ar
     8     3     4   ar
     9     4     5    2
    10     4     6   ar
    11     6     7   ar
    12     7     8   ar
    13     8     9    1
    14     8    10   ar
    15    10    14    1
    16    14    15    1
    17    15    16    1
    18    16    17    1
    19    17    18    1
    20    18    19    1
    21    18    20    1
    22    10    11   ar
    23    11    12    1
    24    11    13   ar
    25    13     1   ar
    26    13     6   ar
    27    20    14    1
    28    17    21    1
@<TRIPOS>MOLECULE
*****
 26 28 0 0 0
SMALL
GASTEIGER

@<TRIPOS>ATOM
      1 N         140.2217  142.7803  165.8571 N.ar    1  UNL1       -0.3241
      2 C         139.8844  143.2550  167.2394 C.ar    1  UNL1        0.0802
      3 C         140.6435  142.7260  168.4201 C.ar    1  UNL1        0.0701
      4 C         141.7398  141.7224  168.2185 C.ar    1  UNL1        0.1996
      5 O         142.4988  141.1934  169.3992 O.2     1  UNL1       -0.2864
      6 C         142.0771  141.2477  166.8362 C.ar    1  UNL1        0.0593
      7 C         143.1734  140.2440  166.6345 C.ar    1  UNL1        0.0357
      8 C         143.5107  139.7693  165.2522 C.ar    1  UNL1        0.1557
      9 F         144.6071  138.7656  165.0505 F       1  UNL1       -0.2028
     10 C         142.7517  140.2983  164.0715 C.ar    1  UNL1        0.1050
     11 C         141.6554  141.3020  164.2731 C.ar    1  UNL1        0.1712
     12 F         140.8963  141.8309  163.0924 F       1  UNL1       -0.2013
     13 C         141.3180  141.7767  165.6555 C.ar    1  UNL1        0.0922
     14 N         143.0890  139.8236  162.6891 N.pl3   1  UNL1       -0.3012
     15 C         143.0936  138.3557  162.3805 C.3     1  UNL1        0.1080
     16 C         143.4310  137.8809  160.9982 C.3     1  UNL1        0.0903
     17 N         143.7637  138.8741  159.9245 N.3     1  UNL1       -0.2957
     18 C         143.7591  140.3420  160.2331 C.3     1  UNL1        0.0741
     19 C         144.0918  141.3352  159.1593 C.3     1  UNL1        0.0189
     20 C         143.4218  140.8167  161.6154 C.3     1  UNL1        0.1066
     21 H         143.0915  138.7295  159.1711 H       1  UNL1        0.1233
     22 C         140.3061  143.2007  169.8025 C.2     1  UNL1        0.0774
     23 O         140.8669  144.4968  170.3081 O.co2   1  UNL1       -0.5444
     24 O         139.4079  142.3794  170.6792 O.co2   1  UNL1       -0.5444
     25 C         138.7782  144.6414  164.7604 C.3     1  UNL1        0.0265
     26 C         139.4627  143.3093  164.6764 C.3     1  UNL1        0.1062
@<TRIPOS>UNITY_ATOM_ATTR
23 1
charge -1
@<TRIPOS>BOND
     1    25    26    1
     2    26     1    1
     3     1     2   ar
     4     2     3   ar
     5     3    22    1
     6    22    23   ar
     7    22    24   ar
     8     3     4   ar
     9     4     5    2
    10     4     6   ar
    11     6     7   ar
    12     7     8   ar
    13     8     9    1
    14     8    10   ar
    15    10    14    1
    16    14    15    1
    17    15    16    1
    18    16    17    1
    19    17    18    1
    20    18    19    1
    21    18    20    1
    22    10    11   ar
    23    11    12    1
    24    11    13   ar
    25    13     1   ar
    26    13     6   ar
    27    20    14    1
    28    17    21    1
