@<TRIPOS>MOLECULE
*****
 30 32 0 0 0
SMALL
GASTEIGER

@<TRIPOS>ATOM
      1 C         142.0288  140.4542  168.6305 C.3     1  UNL1        0.0926
      2 C         142.5725  140.1006  169.9830 C.3     1  UNL1        0.0887
      3 N         143.6091  141.1217  170.3474 N.3     1  UNL1       -0.2958
      4 C         143.7060  142.1065  169.2201 C.3     1  UNL1        0.0747
      5 C         142.7293  141.6940  168.1590 C.3     1  UNL1        0.0573
      6 H         144.5106  140.6653  170.4868 H       1  UNL1        0.1233
      7 C         142.4945  142.3977  166.8553 C.ar    1  UNL1       -0.0195
      8 C         141.0975  142.7382  166.4279 C.ar    1  UNL1       -0.0042
      9 C         140.8626  143.4419  165.1242 C.ar    1  UNL1        0.0035
     10 C         142.0246  143.8051  164.2479 C.ar    1  UNL1        0.0714
     11 C         143.4215  143.4646  164.6753 C.ar    1  UNL1        0.0035
     12 C         143.6564  142.7609  165.9790 C.ar    1  UNL1       -0.0042
     13 C         141.7897  144.5088  162.9442 C.3     1  UNL1        0.4186
     14 F         141.5549  145.2126  161.6406 F       1  UNL1       -0.1659
     15 F         141.6300  143.1845  162.2581 F       1  UNL1       -0.1659
     16 F         141.9494  145.8332  163.6303 F       1  UNL1       -0.1659
     17 C         139.5245  139.8873  168.2340 C.2     1  UNL1        0.2269
     18 O         139.1371  140.8278  169.3365 O.2     1  UNL1       -0.2747
     19 N         140.9703  139.7005  167.8810 N.am    1  UNL1       -0.3040
     20 H         141.2246  139.0832  167.1575 H       1  UNL1        0.1494
     21 C         138.4661  139.1335  167.4846 C.3     1  UNL1        0.1113
     22 C         138.5245  139.0469  162.9858 C.ar    1  UNL1        0.0479
     23 C         138.1928  140.3195  163.7071 C.ar    1  UNL1        0.0142
     24 C         138.1733  140.3484  165.2068 C.ar    1  UNL1       -0.0025
     25 C         138.4856  139.1047  165.9850 C.ar    1  UNL1       -0.0130
     26 C         138.8173  137.8320  165.2636 C.ar    1  UNL1       -0.0025
     27 C         138.8368  137.8031  163.7640 C.ar    1  UNL1        0.0142
     28 C         137.5147  139.7828  160.7079 C.3     1  UNL1        0.1122
     29 N         138.5440  139.0180  161.4862 N.pl3   1  UNL1       -0.3041
     30 C         139.5926  138.2243  160.7649 C.3     1  UNL1        0.1122
@<TRIPOS>BOND
     1    28    29    1
     2    29    30    1
     3    29    22    1
     4    22    23   ar
     5    23    24   ar
     6    24    25   ar
     7    25    21    1
     8    21    17    1
     9    17    18    2
    10    17    19   am
    11     1    19    1
    12     1     2    1
    13     2     3    1
    14     3     4    1
    15     4     5    1
    16     5     7    1
    17     7     8   ar
    18     8     9   ar
    19     9    10   ar
    20    10    13    1
    21    13    14    1
    22    13    15    1
    23    13    16    1
    24    10    11   ar
    25    11    12   ar
    26    25    26   ar
    27    26    27   ar
    28    27    22   ar
    29     5     1    1
    30    12     7   ar
    31    19    20    1
    32     3     6    1
@<TRIPOS>MOLECULE
*****
 30 32 0 0 0
SMALL
GASTEIGER

@<TRIPOS>ATOM
      1 C         138.4002  139.0974  166.5150 C.3     1  UNL1        0.0926
      2 C         137.4018  138.6682  167.5489 C.3     1  UNL1        0.0887
      3 N         137.0621  137.2292  167.2961 N.3     1  UNL1       -0.2958
      4 C         137.8507  136.7691  166.1059 C.3     1  UNL1        0.0747
      5 C         138.6776  137.9236  165.6232 C.3     1  UNL1        0.0573
      6 H         136.0641  137.1372  167.1067 H       1  UNL1        0.1233
      7 C         139.6170  137.9073  164.4539 C.ar    1  UNL1       -0.0195
      8 C         139.0741  137.9100  163.0556 C.ar    1  UNL1       -0.0042
      9 C         140.0135  137.8936  161.8863 C.ar    1  UNL1        0.0035
     10 C         141.4959  137.8746  162.1153 C.ar    1  UNL1        0.0714
     11 C         142.0387  137.8720  163.5136 C.ar    1  UNL1        0.0035
     12 C         141.0993  137.8883  164.6829 C.ar    1  UNL1       -0.0042
     13 C         142.4353  137.8583  160.9460 C.3     1  UNL1        0.4186
     14 F         143.3746  137.8420  159.7767 F       1  UNL1       -0.1659
     15 F         143.5874  137.6141  161.8751 F       1  UNL1       -0.1659
     16 F         141.2832  138.1025  160.0170 F       1  UNL1       -0.1659
     17 C         140.0614  140.9014  167.3728 C.2     1  UNL1        0.2269
     18 O         140.4961  139.9784  168.4723 O.2     1  UNL1       -0.2747
     19 N         139.0135  140.4610  166.3941 N.am    1  UNL1       -0.3040
     20 H         138.7282  141.0668  165.6725 H       1  UNL1        0.1494
     21 C         140.6747  142.2650  167.2519 C.3     1  UNL1        0.1113
     22 C         140.6266  144.4112  163.2969 C.ar    1  UNL1        0.0479
     23 C         141.7481  143.4713  163.6265 C.ar    1  UNL1        0.0142
     24 C         141.7642  142.7559  164.9449 C.ar    1  UNL1       -0.0025
     25 C         140.6587  142.9804  165.9335 C.ar    1  UNL1       -0.0130
     26 C         139.5371  143.9203  165.6038 C.ar    1  UNL1       -0.0025
     27 C         139.5210  144.6356  164.2856 C.ar    1  UNL1        0.0142
     28 C         139.7108  146.3100  161.7784 C.3     1  UNL1        0.1122
     29 N         140.6105  145.1266  161.9786 N.pl3   1  UNL1       -0.3041
     30 C         141.4940  144.6585  160.8604 C.3     1  UNL1        0.1122
@<TRIPOS>BOND
     1    28    29    1
     2    29    30    1
     3    29    22    1
     4    22    23   ar
     5    23    24   ar
     6    24    25   ar
     7    25    21    1
     8    21    17    1
     9    17    18    2
    10    17    19   am
    11     1    19    1
    12     1     2    1
    13     2     3    1
    14     3     4    1
    15     4     5    1
    16     5     7    1
    17     7     8   ar
    18     8     9   ar
    19     9    10   ar
    20    10    13    1
    21    13    14    1
    22    13    15    1
    23    13    16    1
    24    10    11   ar
    25    11    12   ar
    26    25    26   ar
    27    26    27   ar
    28    27    22   ar
    29     5     1    1
    30    12     7   ar
    31    19    20    1
    32     3     6    1
@<TRIPOS>MOLECULE
*****
 30 32 0 0 0
SMALL
GASTEIGER

@<TRIPOS>ATOM
      1 C         140.5523  140.3091  168.4596 C.3     1  UNL1        0.0926
      2 C         140.2539  139.8301  169.8494 C.3     1  UNL1        0.0887
      3 N         141.5465  139.4049  170.4807 N.3     1  UNL1       -0.2958
      4 C         142.6437  139.6212  169.4810 C.3     1  UNL1        0.0747
      5 C         142.0293  140.1800  168.2319 C.3     1  UNL1        0.0573
      6 H         141.4994  138.4183  170.7350 H       1  UNL1        0.1233
      7 C         142.7631  140.5455  166.9758 C.ar    1  UNL1       -0.0195
      8 C         143.2361  139.4697  166.0435 C.ar    1  UNL1       -0.0042
      9 C         143.9698  139.8352  164.7873 C.ar    1  UNL1        0.0035
     10 C         144.2306  141.2764  164.4634 C.ar    1  UNL1        0.0714
     11 C         143.7576  142.3522  165.3956 C.ar    1  UNL1        0.0035
     12 C         143.0239  141.9866  166.6518 C.ar    1  UNL1       -0.0042
     13 C         144.9644  141.6420  163.2072 C.3     1  UNL1        0.4186
     14 F         145.6982  142.0075  161.9511 F       1  UNL1       -0.1659
     15 F         143.6594  141.7452  162.4749 F       1  UNL1       -0.1659
     16 F         146.2695  141.5387  163.9395 F       1  UNL1       -0.1659
     17 C         139.2041  140.0141  166.2584 C.2     1  UNL1        0.2269
     18 O         139.8611  138.6844  166.0342 O.2     1  UNL1       -0.2747
     19 N         139.5497  140.8265  167.4710 N.am    1  UNL1       -0.3040
     20 H         139.1185  141.6992  167.6181 H       1  UNL1        0.1494
     21 C         138.2015  140.5314  165.2699 C.3     1  UNL1        0.1113
     22 C         139.3848  143.7221  162.3254 C.ar    1  UNL1        0.0479
     23 C         137.9351  143.4084  162.5491 C.ar    1  UNL1        0.0142
     24 C         137.5407  142.3448  163.5307 C.ar    1  UNL1       -0.0025
     25 C         138.5959  141.5950  164.2884 C.ar    1  UNL1       -0.0130
     26 C         140.0456  141.9087  164.0647 C.ar    1  UNL1       -0.0025
     27 C         140.4400  142.9723  163.0832 C.ar    1  UNL1        0.0142
     28 C         140.1723  144.4080  159.9466 C.3     1  UNL1        0.1122
     29 N         139.7792  144.7857  161.3440 N.pl3   1  UNL1       -0.3041
     30 C         139.7805  146.2268  161.7600 C.3     1  UNL1        0.1122
@<TRIPOS>BOND
     1    28    29    1
     2    29    30    1
     3    29    22    1
     4    22    23   ar
     5    23    24   ar
     6    24    25   ar
     7    25    21    1
     8    21    17    1
     9    17    18    2
    10    17    19   am
    11     1    19    1
    12     1     2    1
    13     2     3    1
    14     3     4    1
    15     4     5    1
    16     5     7    1
    17     7     8   ar
    18     8     9   ar
    19     9    10   ar
    20    10    13    1
    21    13    14    1
    22    13    15    1
    23    13    16    1
    24    10    11   ar
    25    11    12   ar
    26    25    26   ar
    27    26    27   ar
    28    27    22   ar
    29     5     1    1
    30    12     7   ar
    31    19    20    1
    32     3     6    1
@<TRIPOS>MOLECULE
*****
 30 32 0 0 0
SMALL
GASTEIGER

@<TRIPOS>ATOM
      1 C         139.7140  140.4321  168.0438 C.3     1  UNL1        0.0926
      2 C         139.0403  140.2512  169.3717 C.3     1  UNL1        0.0887
      3 N         139.3933  141.4262  170.2346 N.3     1  UNL1       -0.2958
      4 C         140.2852  142.3335  169.4398 C.3     1  UNL1        0.0747
      5 C         140.4834  141.7190  168.0859 C.3     1  UNL1        0.0573
      6 H         139.8814  141.1070  171.0714 H       1  UNL1        0.1233
      7 C         141.3065  142.2911  166.9700 C.ar    1  UNL1       -0.0195
      8 C         140.6387  143.0286  165.8474 C.ar    1  UNL1       -0.0042
      9 C         141.4618  143.6007  164.7315 C.ar    1  UNL1        0.0035
     10 C         142.9527  143.4354  164.7382 C.ar    1  UNL1        0.0714
     11 C         143.6204  142.6979  165.8608 C.ar    1  UNL1        0.0035
     12 C         142.7973  142.1258  166.9767 C.ar    1  UNL1       -0.0042
     13 C         143.7758  144.0075  163.6223 C.3     1  UNL1        0.4186
     14 F         144.5989  144.5796  162.5065 F       1  UNL1       -0.1659
     15 F         144.5183  142.7094  163.5045 F       1  UNL1       -0.1659
     16 F         143.0333  145.3056  163.7402 F       1  UNL1       -0.1659
     17 C         138.4748  138.5453  166.7576 C.2     1  UNL1        0.2269
     18 O         137.3984  138.5401  167.8022 O.2     1  UNL1       -0.2747
     19 N         139.6326  139.4912  166.8783 N.am    1  UNL1       -0.3040
     20 H         140.3391  139.4946  166.1927 H       1  UNL1        0.1494
     21 C         138.3935  137.6045  165.5922 C.3     1  UNL1        0.1113
     22 C         141.3262  137.9674  162.1983 C.ar    1  UNL1        0.0479
     23 C         141.8058  137.5805  163.5659 C.ar    1  UNL1        0.0142
     24 C         140.8282  137.4595  164.6972 C.ar    1  UNL1       -0.0025
     25 C         139.3711  137.7255  164.4609 C.ar    1  UNL1       -0.0130
     26 C         138.8914  138.1124  163.0933 C.ar    1  UNL1       -0.0025
     27 C         139.8689  138.2334  161.9621 C.ar    1  UNL1        0.0142
     28 C         143.7692  137.8899  161.3178 C.3     1  UNL1        0.1122
     29 N         142.3037  138.0884  161.0671 N.pl3   1  UNL1       -0.3041
     30 C         141.8157  138.4080  159.6851 C.3     1  UNL1        0.1122
@<TRIPOS>BOND
     1    28    29    1
     2    29    30    1
     3    29    22    1
     4    22    23   ar
     5    23    24   ar
     6    24    25   ar
     7    25    21    1
     8    21    17    1
     9    17    18    2
    10    17    19   am
    11     1    19    1
    12     1     2    1
    13     2     3    1
    14     3     4    1
    15     4     5    1
    16     5     7    1
    17     7     8   ar
    18     8     9   ar
    19     9    10   ar
    20    10    13    1
    21    13    14    1
    22    13    15    1
    23    13    16    1
    24    10    11   ar
    25    11    12   ar
    26    25    26   ar
    27    26    27   ar
    28    27    22   ar
    29     5     1    1
    30    12     7   ar
    31    19    20    1
    32     3     6    1
@<TRIPOS>MOLECULE
*****
 30 32 0 0 0
SMALL
GASTEIGER

@<TRIPOS>ATOM
      1 C         139.6412  139.4373  160.4507 C.3     1  UNL1        0.0926
      2 C         139.4441  138.7968  159.1087 C.3     1  UNL1        0.0887
      3 N         138.5324  139.6758  158.3049 N.3     1  UNL1       -0.2958
      4 C         138.1661  140.8597  159.1501 C.3     1  UNL1        0.0747
      5 C         138.8514  140.7123  160.4762 C.3     1  UNL1        0.0573
      6 H         137.6908  139.1595  158.0490 H       1  UNL1        0.1233
      7 C         138.7625  141.6715  161.6260 C.ar    1  UNL1       -0.0195
      8 C         138.0232  141.2823  162.8719 C.ar    1  UNL1       -0.0042
      9 C         137.9342  142.2414  164.0217 C.ar    1  UNL1        0.0035
     10 C         138.5845  143.5898  163.9257 C.ar    1  UNL1        0.0714
     11 C         139.3237  143.9789  162.6799 C.ar    1  UNL1        0.0035
     12 C         139.4127  143.0197  161.5301 C.ar    1  UNL1       -0.0042
     13 C         138.4955  144.5490  165.0755 C.3     1  UNL1        0.4186
     14 F         138.4067  145.5082  166.2253 F       1  UNL1       -0.1659
     15 F         137.0108  144.3431  165.1324 F       1  UNL1       -0.1659
     16 F         139.9803  144.7549  165.0186 F       1  UNL1       -0.1659
     17 C         139.8644  138.0071  162.6081 C.2     1  UNL1        0.2269
     18 O         138.4084  137.6561  162.5261 O.2     1  UNL1       -0.2747
     19 N         140.4809  138.8977  161.5705 N.am    1  UNL1       -0.3040
     20 H         141.4365  139.1280  161.6243 H       1  UNL1        0.1494
     21 C         140.7041  137.4675  163.7279 C.3     1  UNL1        0.1113
     22 C         141.5480  140.0177  167.3382 C.ar    1  UNL1        0.0479
     23 C         142.6573  139.2419  166.6921 C.ar    1  UNL1        0.0142
     24 C         142.3760  138.3918  165.4886 C.ar    1  UNL1       -0.0025
     25 C         140.9854  138.3176  164.9313 C.ar    1  UNL1       -0.0130
     26 C         139.8760  139.0934  165.5774 C.ar    1  UNL1       -0.0025
     27 C         140.1573  139.9434  166.7808 C.ar    1  UNL1        0.0142
     28 C         141.0488  140.6599  169.8056 C.3     1  UNL1        0.1122
     29 N         141.8292  140.8678  168.5416 N.pl3   1  UNL1       -0.3041
     30 C         142.8909  141.9257  168.4810 C.3     1  UNL1        0.1122
@<TRIPOS>BOND
     1    28    29    1
     2    29    30    1
     3    29    22    1
     4    22    23   ar
     5    23    24   ar
     6    24    25   ar
     7    25    21    1
     8    21    17    1
     9    17    18    2
    10    17    19   am
    11     1    19    1
    12     1     2    1
    13     2     3    1
    14     3     4    1
    15     4     5    1
    16     5     7    1
    17     7     8   ar
    18     8     9   ar
    19     9    10   ar
    20    10    13    1
    21    13    14    1
    22    13    15    1
    23    13    16    1
    24    10    11   ar
    25    11    12   ar
    26    25    26   ar
    27    26    27   ar
    28    27    22   ar
    29     5     1    1
    30    12     7   ar
    31    19    20    1
    32     3     6    1
@<TRIPOS>MOLECULE
*****
 30 32 0 0 0
SMALL
GASTEIGER

@<TRIPOS>ATOM
      1 C         144.2674  141.8143  163.4901 C.3     1  UNL1        0.0926
      2 C         145.4699  141.6846  162.6028 C.3     1  UNL1        0.0887
      3 N         145.3251  142.6677  161.4792 N.3     1  UNL1       -0.2958
      4 C         144.0331  143.4051  161.6721 C.3     1  UNL1        0.0747
      5 C         143.3794  142.8776  162.9149 C.3     1  UNL1        0.0573
      6 H         145.3120  142.1740  160.5868 H       1  UNL1        0.1233
      7 C         142.0681  143.3335  163.4827 C.ar    1  UNL1       -0.0195
      8 C         141.0987  144.0866  162.6205 C.ar    1  UNL1       -0.0042
      9 C         139.7873  144.5424  163.1883 C.ar    1  UNL1        0.0035
     10 C         139.4452  144.2453  164.6183 C.ar    1  UNL1        0.0714
     11 C         140.4146  143.4923  165.4804 C.ar    1  UNL1        0.0035
     12 C         141.7259  143.0364  164.9126 C.ar    1  UNL1       -0.0042
     13 C         138.1338  144.7012  165.1861 C.3     1  UNL1        0.4186
     14 F         136.8224  145.1570  165.7538 F       1  UNL1       -0.1659
     15 F         138.8340  145.1692  166.4273 F       1  UNL1       -0.1659
     16 F         137.4336  144.2330  163.9448 F       1  UNL1       -0.1659
     17 C         143.6219  139.5721  164.6329 C.2     1  UNL1        0.2269
     18 O         143.5114  138.9182  163.2874 O.2     1  UNL1       -0.2747
     19 N         143.9999  141.0201  164.7342 N.am    1  UNL1       -0.3040
     20 H         144.0724  141.4493  165.6173 H       1  UNL1        0.1494
     21 C         143.3544  138.7780  165.8769 C.3     1  UNL1        0.1113
     22 C         140.3769  140.2712  168.9028 C.ar    1  UNL1        0.0479
     23 C         141.7240  139.7876  169.3516 C.ar    1  UNL1        0.0142
     24 C         142.7165  139.2898  168.3430 C.ar    1  UNL1       -0.0025
     25 C         142.3619  139.2757  166.8856 C.ar    1  UNL1       -0.0130
     26 C         141.0148  139.7594  166.4367 C.ar    1  UNL1       -0.0025
     27 C         140.0223  140.2571  167.4453 C.ar    1  UNL1        0.0142
     28 C         139.5864  142.1028  170.5671 C.3     1  UNL1        0.1122
     29 N         139.3844  140.7690  169.9113 N.pl3   1  UNL1       -0.3041
     30 C         138.1901  139.9329  170.2640 C.3     1  UNL1        0.1122
@<TRIPOS>BOND
     1    28    29    1
     2    29    30    1
     3    29    22    1
     4    22    23   ar
     5    23    24   ar
     6    24    25   ar
     7    25    21    1
     8    21    17    1
     9    17    18    2
    10    17    19   am
    11     1    19    1
    12     1     2    1
    13     2     3    1
    14     3     4    1
    15     4     5    1
    16     5     7    1
    17     7     8   ar
    18     8     9   ar
    19     9    10   ar
    20    10    13    1
    21    13    14    1
    22    13    15    1
    23    13    16    1
    24    10    11   ar
    25    11    12   ar
    26    25    26   ar
    27    26    27   ar
    28    27    22   ar
    29     5     1    1
    30    12     7   ar
    31    19    20    1
    32     3     6    1
@<TRIPOS>MOLECULE
*****
 30 32 0 0 0
SMALL
GASTEIGER

@<TRIPOS>ATOM
      1 C         140.1247  140.8751  167.6331 C.3     1  UNL1        0.0926
      2 C         140.1946  140.5644  169.0990 C.3     1  UNL1        0.0887
      3 N         140.4758  141.8431  169.8309 N.3     1  UNL1       -0.2958
      4 C         140.5798  142.9441  168.8174 C.3     1  UNL1        0.0747
      5 C         140.3628  142.3458  167.4592 C.3     1  UNL1        0.0573
      6 H         141.3531  141.7619  170.3451 H       1  UNL1        0.1233
      7 C         140.3807  143.0880  166.1558 C.ar    1  UNL1       -0.0195
      8 C         139.2388  143.9896  165.7904 C.ar    1  UNL1       -0.0042
      9 C         139.2568  144.7318  164.4870 C.ar    1  UNL1        0.0035
     10 C         140.4164  144.5724  163.5490 C.ar    1  UNL1        0.0714
     11 C         141.5581  143.6708  163.9144 C.ar    1  UNL1        0.0035
     12 C         141.5402  142.9286  165.2178 C.ar    1  UNL1       -0.0042
     13 C         140.4343  145.3145  162.2456 C.3     1  UNL1        0.4186
     14 F         140.4521  146.0567  160.9422 F       1  UNL1       -0.1659
     15 F         141.9076  145.0618  162.1219 F       1  UNL1       -0.1659
     16 F         138.9608  145.5673  162.3693 F       1  UNL1       -0.1659
     17 C         138.7520  138.8896  166.6721 C.2     1  UNL1        0.2269
     18 O         137.9033  138.8777  167.9088 O.2     1  UNL1       -0.2747
     19 N         139.8627  139.8882  166.5342 N.am    1  UNL1       -0.3040
     20 H         140.4197  139.8960  165.7225 H       1  UNL1        0.1494
     21 C         138.4901  137.9028  165.5732 C.3     1  UNL1        0.1113
     22 C         140.8990  138.0718  161.7759 C.ar    1  UNL1        0.0479
     23 C         141.5002  137.4884  163.0202 C.ar    1  UNL1        0.0142
     24 C         140.6972  137.4320  164.2859 C.ar    1  UNL1       -0.0025
     25 C         139.2931  137.9591  164.3074 C.ar    1  UNL1       -0.0130
     26 C         138.6918  138.5425  163.0632 C.ar    1  UNL1       -0.0025
     27 C         139.4947  138.5988  161.7974 C.ar    1  UNL1        0.0142
     28 C         141.0916  138.6871  159.2592 C.3     1  UNL1        0.1122
     29 N         141.7019  138.1281  160.5102 N.pl3   1  UNL1       -0.3041
     30 C         143.1151  137.6254  160.4954 C.3     1  UNL1        0.1122
@<TRIPOS>BOND
     1    28    29    1
     2    29    30    1
     3    29    22    1
     4    22    23   ar
     5    23    24   ar
     6    24    25   ar
     7    25    21    1
     8    21    17    1
     9    17    18    2
    10    17    19   am
    11     1    19    1
    12     1     2    1
    13     2     3    1
    14     3     4    1
    15     4     5    1
    16     5     7    1
    17     7     8   ar
    18     8     9   ar
    19     9    10   ar
    20    10    13    1
    21    13    14    1
    22    13    15    1
    23    13    16    1
    24    10    11   ar
    25    11    12   ar
    26    25    26   ar
    27    26    27   ar
    28    27    22   ar
    29     5     1    1
    30    12     7   ar
    31    19    20    1
    32     3     6    1
@<TRIPOS>MOLECULE
*****
 30 32 0 0 0
SMALL
GASTEIGER

@<TRIPOS>ATOM
      1 C         139.1472  142.5464  160.1080 C.3     1  UNL1        0.0926
      2 C         138.5250  142.6711  158.7488 C.3     1  UNL1        0.0887
      3 N         139.3812  143.5908  157.9297 N.3     1  UNL1       -0.2958
      4 C         140.5327  144.0344  158.7826 C.3     1  UNL1        0.0747
      5 C         140.3880  143.3889  160.1288 C.3     1  UNL1        0.0573
      6 H         138.8359  144.4011  157.6356 H       1  UNL1        0.1233
      7 C         141.3205  143.5566  161.2917 C.ar    1  UNL1       -0.0195
      8 C         141.2342  144.7828  162.1515 C.ar    1  UNL1       -0.0042
      9 C         142.1667  144.9505  163.3144 C.ar    1  UNL1        0.0035
     10 C         143.1854  143.8921  163.6176 C.ar    1  UNL1        0.0714
     11 C         143.2717  142.6659  162.7579 C.ar    1  UNL1        0.0035
     12 C         142.3392  142.4982  161.5950 C.ar    1  UNL1       -0.0042
     13 C         144.1179  144.0597  164.7805 C.3     1  UNL1        0.4186
     14 F         145.0504  144.2273  165.9434 F       1  UNL1       -0.1659
     15 F         144.1072  145.5455  164.5749 F       1  UNL1       -0.1659
     16 F         144.1286  142.5739  164.9862 F       1  UNL1       -0.1659
     17 C         137.9259  142.3910  162.3959 C.2     1  UNL1        0.2269
     18 O         137.7569  143.8814  162.4069 O.2     1  UNL1       -0.2747
     19 N         138.6210  141.7234  161.2464 N.am    1  UNL1       -0.3040
     20 H         138.7318  140.7452  161.2392 H       1  UNL1        0.1494
     21 C         137.3997  141.5681  163.5342 C.3     1  UNL1        0.1113
     22 C         140.1318  140.3899  166.9103 C.ar    1  UNL1        0.0479
     23 C         140.3348  141.6967  166.2024 C.ar    1  UNL1        0.0142
     24 C         139.4241  142.0894  165.0770 C.ar    1  UNL1       -0.0025
     25 C         138.3104  141.1753  164.6596 C.ar    1  UNL1       -0.0130
     26 C         138.1074  139.8686  165.3675 C.ar    1  UNL1       -0.0025
     27 C         139.0181  139.4758  166.4928 C.ar    1  UNL1        0.0142
     28 C         142.4572  139.5899  167.7482 C.3     1  UNL1        0.1122
     29 N         141.0425  139.9971  168.0356 N.pl3   1  UNL1       -0.3041
     30 C         140.5384  140.0116  169.4483 C.3     1  UNL1        0.1122
@<TRIPOS>BOND
     1    28    29    1
     2    29    30    1
     3    29    22    1
     4    22    23   ar
     5    23    24   ar
     6    24    25   ar
     7    25    21    1
     8    21    17    1
     9    17    18    2
    10    17    19   am
    11     1    19    1
    12     1     2    1
    13     2     3    1
    14     3     4    1
    15     4     5    1
    16     5     7    1
    17     7     8   ar
    18     8     9   ar
    19     9    10   ar
    20    10    13    1
    21    13    14    1
    22    13    15    1
    23    13    16    1
    24    10    11   ar
    25    11    12   ar
    26    25    26   ar
    27    26    27   ar
    28    27    22   ar
    29     5     1    1
    30    12     7   ar
    31    19    20    1
    32     3     6    1
@<TRIPOS>MOLECULE
*****
 30 32 0 0 0
SMALL
GASTEIGER

@<TRIPOS>ATOM
      1 C         140.3846  140.7984  167.6425 C.3     1  UNL1        0.0926
      2 C         140.5973  140.4139  169.0767 C.3     1  UNL1        0.0887
      3 N         140.7987  141.6717  169.8689 N.3     1  UNL1       -0.2958
      4 C         140.7105  142.8335  168.9242 C.3     1  UNL1        0.0747
      5 C         140.4546  142.2938  167.5483 C.3     1  UNL1        0.0573
      6 H         141.7160  141.6568  170.3147 H       1  UNL1        0.1233
      7 C         140.2964  143.1068  166.2977 C.ar    1  UNL1       -0.0195
      8 C         141.3682  143.0849  165.2484 C.ar    1  UNL1       -0.0042
      9 C         141.2100  143.8979  163.9978 C.ar    1  UNL1        0.0035
     10 C         139.9802  144.7328  163.7964 C.ar    1  UNL1        0.0714
     11 C         138.9085  144.7546  164.8456 C.ar    1  UNL1        0.0035
     12 C         139.0666  143.9416  166.0962 C.ar    1  UNL1       -0.0042
     13 C         139.8220  145.5457  162.5457 C.3     1  UNL1        0.4186
     14 F         139.6639  146.3587  161.2952 F       1  UNL1       -0.1659
     15 F         138.3379  145.3339  162.5958 F       1  UNL1       -0.1659
     16 F         141.3062  145.7575  162.4958 F       1  UNL1       -0.1659
     17 C         138.9595  138.9336  166.5282 C.2     1  UNL1        0.2269
     18 O         138.0154  138.9587  167.6935 O.2     1  UNL1       -0.2747
     19 N         140.1441  139.8534  166.5027 N.am    1  UNL1       -0.3040
     20 H         140.7638  139.8369  165.7379 H       1  UNL1        0.1494
     21 C         138.7191  137.9886  165.3884 C.3     1  UNL1        0.1113
     22 C         138.8525  139.4951  161.1501 C.ar    1  UNL1        0.0479
     23 C         138.2296  140.3352  162.2254 C.ar    1  UNL1        0.0142
     24 C         138.1851  139.8330  163.6382 C.ar    1  UNL1       -0.0025
     25 C         138.7636  138.4908  163.9756 C.ar    1  UNL1       -0.0130
     26 C         139.3865  137.6508  162.9003 C.ar    1  UNL1       -0.0025
     27 C         139.4310  138.1529  161.4876 C.ar    1  UNL1        0.0142
     28 C         139.3540  139.0907  158.6333 C.3     1  UNL1        0.1122
     29 N         138.8970  139.9973  159.7374 N.pl3   1  UNL1       -0.3041
     30 C         138.4843  141.4060  159.4288 C.3     1  UNL1        0.1122
@<TRIPOS>BOND
     1    28    29    1
     2    29    30    1
     3    29    22    1
     4    22    23   ar
     5    23    24   ar
     6    24    25   ar
     7    25    21    1
     8    21    17    1
     9    17    18    2
    10    17    19   am
    11     1    19    1
    12     1     2    1
    13     2     3    1
    14     3     4    1
    15     4     5    1
    16     5     7    1
    17     7     8   ar
    18     8     9   ar
    19     9    10   ar
    20    10    13    1
    21    13    14    1
    22    13    15    1
    23    13    16    1
    24    10    11   ar
    25    11    12   ar
    26    25    26   ar
    27    26    27   ar
    28    27    22   ar
    29     5     1    1
    30    12     7   ar
    31    19    20    1
    32     3     6    1
