@<TRIPOS>MOLECULE
*****
 38 42 0 0 0
SMALL
GASTEIGER

@<TRIPOS>ATOM
      1 C         142.9249  141.1219  160.8648 C.3     1  UNL1        0.2358
      2 C         144.2225  141.8431  161.0800 C.3     1  UNL1        0.1700
      3 O         144.7079  142.8331  160.0631 O.3     1  UNL1       -0.3793
      4 H         144.0700  142.8872  159.3343 H       1  UNL1        0.2106
      5 C         145.0345  141.5743  162.3122 C.3     1  UNL1        0.1056
      6 N         144.3648  141.5121  163.6530 N.3     1  UNL1       -0.2703
      7 C         144.3187  142.7312  164.5257 C.3     1  UNL1        0.0758
      8 C         143.6490  142.6689  165.8664 C.3     1  UNL1        0.0577
      9 C         143.0254  141.3875  166.3345 C.3     1  UNL1        0.1399
     10 C         143.0715  140.1684  165.4618 C.3     1  UNL1        0.0577
     11 C         143.7412  140.2307  164.1211 C.3     1  UNL1        0.0758
     12 C         142.3620  140.1829  166.9336 C.3     1  UNL1        0.0695
     13 C         141.8281  140.5698  168.2810 C.ar    1  UNL1        0.0175
     14 C         141.0814  139.7940  169.3253 C.ar    1  UNL1        0.0285
     15 C         140.6681  140.4619  170.6032 C.ar    1  UNL1        0.1400
     16 F         139.9215  139.6862  171.6475 F       1  UNL1       -0.2042
     17 C         141.0016  141.9056  170.8368 C.ar    1  UNL1        0.0327
     18 C         141.7483  142.6814  169.7925 C.ar    1  UNL1        0.0389
     19 C         142.1616  142.0135  168.5146 C.ar    1  UNL1        0.1344
     20 O         142.9015  142.5189  167.3116 O.3     1  UNL1       -0.4825
     21 O         141.6319  141.8818  160.8864 O.3     1  UNL1       -0.4714
     22 C         141.5695  144.2290  161.9985 C.ar    1  UNL1        0.0861
     23 C         141.2326  145.1027  163.1703 C.ar    1  UNL1        0.0209
     24 C         140.6211  144.5030  164.4017 C.ar    1  UNL1        0.0381
     25 C         140.3466  143.0296  164.4614 C.ar    1  UNL1        0.1368
     26 O         139.7351  142.4299  165.6928 O.3     1  UNL1       -0.5054
     27 C         140.6835  142.1558  163.2896 C.ar    1  UNL1        0.0747
     28 C         141.2950  142.7555  162.0581 C.ar    1  UNL1        0.1550
     29 H         139.5246  142.9757  166.4248 H       1  UNL1        0.2922
     30 O         139.8562  144.8177  159.6073 O.2     1  UNL1       -0.2525
     31 C         141.3244  145.1231  159.5715 C.2     1  UNL1        0.3045
     32 N         142.1810  144.8287  160.7671 N.am    1  UNL1       -0.2658
     33 N         141.9358  145.7228  158.3400 N.am    1  UNL1       -0.2903
     34 H         143.1446  145.0291  160.7435 H       1  UNL1        0.1565
     35 H         142.8994  145.9232  158.3165 H       1  UNL1        0.1509
     36 C         141.0792  146.0172  157.1445 C.3     1  UNL1        0.0732
     37 C         139.8669  146.6636  156.5425 C.3     1  UNL1        0.0213
     38 C         140.8077  145.8806  155.6756 C.3     1  UNL1        0.0213
@<TRIPOS>BOND
     1    30    31    2
     2    31    32   am
     3    32    22    1
     4    22    23   ar
     5    23    24   ar
     6    24    25   ar
     7    25    26    1
     8    25    27   ar
     9    27    28   ar
    10    28    21    1
    11    21     1    1
    12     1     2    1
    13     2     3    1
    14     2     5    1
    15     5     6    1
    16     6     7    1
    17     7     8    1
    18     8     9    1
    19     9    10    1
    20    10    11    1
    21     9    12    1
    22    12    13    1
    23    13    14   ar
    24    14    15   ar
    25    15    16    1
    26    15    17   ar
    27    17    18   ar
    28    18    19   ar
    29    19    20    1
    30    31    33   am
    31    33    36    1
    32    36    37    1
    33    37    38    1
    34    28    22   ar
    35    11     6    1
    36    19    13   ar
    37    38    36    1
    38    20     9    1
    39    32    34    1
    40    26    29    1
    41     3     4    1
    42    33    35    1
@<TRIPOS>MOLECULE
*****
 38 42 0 0 0
SMALL
GASTEIGER

@<TRIPOS>ATOM
      1 C         143.5886  142.5539  159.7924 C.3     1  UNL1        0.2358
      2 C         144.3059  141.9469  160.9616 C.3     1  UNL1        0.1700
      3 O         145.6054  142.5316  161.4302 O.3     1  UNL1       -0.3793
      4 H         145.8379  143.2908  160.8730 H       1  UNL1        0.2106
      5 C         143.7238  140.7552  161.6622 C.3     1  UNL1        0.1056
      6 N         143.1101  140.9104  163.0222 N.3     1  UNL1       -0.2703
      7 C         142.8685  139.7027  163.8783 C.3     1  UNL1        0.0758
      8 C         142.2548  139.8580  165.2381 C.3     1  UNL1        0.0577
      9 C         141.8827  141.2210  165.7419 C.3     1  UNL1        0.1399
     10 C         142.1243  142.4287  164.8857 C.3     1  UNL1        0.0577
     11 C         142.7380  142.2734  163.5259 C.3     1  UNL1        0.0758
     12 C         141.4611  142.5130  166.3766 C.3     1  UNL1        0.0695
     13 C         140.9007  142.2021  167.7329 C.ar    1  UNL1        0.0175
     14 C         140.3315  143.0786  168.8088 C.ar    1  UNL1        0.0285
     15 C         139.8378  142.4710  170.0882 C.ar    1  UNL1        0.1400
     16 F         139.2686  143.3475  171.1642 F       1  UNL1       -0.2042
     17 C         139.9131  140.9868  170.2917 C.ar    1  UNL1        0.0327
     18 C         140.4823  140.1101  169.2158 C.ar    1  UNL1        0.0389
     19 C         140.9760  140.7178  167.9363 C.ar    1  UNL1        0.1344
     20 O         141.5830  140.1115  166.7059 O.3     1  UNL1       -0.4825
     21 O         142.1143  142.8185  159.8720 O.3     1  UNL1       -0.4714
     22 C         140.9606  145.0950  159.3856 C.ar    1  UNL1        0.0861
     23 C         140.3158  146.0443  158.4198 C.ar    1  UNL1        0.0209
     24 C         140.1798  145.6666  156.9745 C.ar    1  UNL1        0.0381
     25 C         140.6886  144.3395  156.4951 C.ar    1  UNL1        0.1368
     26 O         140.5526  143.9618  155.0498 O.3     1  UNL1       -0.5054
     27 C         141.3335  143.3901  157.4609 C.ar    1  UNL1        0.0747
     28 C         141.4695  143.7678  158.9062 C.ar    1  UNL1        0.1550
     29 H         140.1498  144.5549  154.4465 H       1  UNL1        0.2922
     30 O         138.9563  144.1096  161.3885 O.2     1  UNL1       -0.2525
     31 C         140.0945  144.9800  161.8324 C.2     1  UNL1        0.3045
     32 N         141.0966  145.4727  160.8309 N.am    1  UNL1       -0.2658
     33 N         140.2305  145.3578  163.2776 N.am    1  UNL1       -0.2903
     34 H         141.8436  146.0440  161.1222 H       1  UNL1        0.1565
     35 H         140.9775  145.9290  163.5689 H       1  UNL1        0.1509
     36 C         139.2284  144.8651  164.2791 C.3     1  UNL1        0.0732
     37 C         138.5876  144.9632  165.6318 C.3     1  UNL1        0.0213
     38 C         138.1334  143.9137  164.6611 C.3     1  UNL1        0.0213
@<TRIPOS>BOND
     1    30    31    2
     2    31    32   am
     3    32    22    1
     4    22    23   ar
     5    23    24   ar
     6    24    25   ar
     7    25    26    1
     8    25    27   ar
     9    27    28   ar
    10    28    21    1
    11    21     1    1
    12     1     2    1
    13     2     3    1
    14     2     5    1
    15     5     6    1
    16     6     7    1
    17     7     8    1
    18     8     9    1
    19     9    10    1
    20    10    11    1
    21     9    12    1
    22    12    13    1
    23    13    14   ar
    24    14    15   ar
    25    15    16    1
    26    15    17   ar
    27    17    18   ar
    28    18    19   ar
    29    19    20    1
    30    31    33   am
    31    33    36    1
    32    36    37    1
    33    37    38    1
    34    28    22   ar
    35    11     6    1
    36    19    13   ar
    37    38    36    1
    38    20     9    1
    39    32    34    1
    40    26    29    1
    41     3     4    1
    42    33    35    1
@<TRIPOS>MOLECULE
*****
 38 42 0 0 0
SMALL
GASTEIGER

@<TRIPOS>ATOM
      1 C         143.2820  139.8930  159.9694 C.3     1  UNL1        0.2358
      2 C         144.0855  139.4365  161.1510 C.3     1  UNL1        0.1700
      3 O         144.4147  137.9826  161.3175 O.3     1  UNL1       -0.3793
      4 H         144.0359  137.4788  160.5803 H       1  UNL1        0.2106
      5 C         144.5597  140.4339  162.1659 C.3     1  UNL1        0.1056
      6 N         143.7916  140.6315  163.4392 N.3     1  UNL1       -0.2703
      7 C         143.2616  139.4443  164.1872 C.3     1  UNL1        0.0758
      8 C         142.4935  139.6419  165.4603 C.3     1  UNL1        0.0577
      9 C         142.2554  141.0266  165.9855 C.3     1  UNL1        0.1399
     10 C         142.7855  142.2138  165.2374 C.3     1  UNL1        0.0577
     11 C         143.5535  142.0163  163.9643 C.3     1  UNL1        0.0758
     12 C         141.9403  142.3441  166.6297 C.3     1  UNL1        0.0695
     13 C         141.1576  142.0731  167.8804 C.ar    1  UNL1        0.0175
     14 C         140.5767  142.9867  168.9186 C.ar    1  UNL1        0.0285
     15 C         139.8272  142.4153  170.0856 C.ar    1  UNL1        0.1400
     16 F         139.2463  143.3288  171.1238 F       1  UNL1       -0.2042
     17 C         139.6586  140.9304  170.2143 C.ar    1  UNL1        0.0327
     18 C         140.2396  140.0168  169.1760 C.ar    1  UNL1        0.0389
     19 C         140.9891  140.5882  168.0091 C.ar    1  UNL1        0.1344
     20 O         141.6675  139.9414  166.8380 O.3     1  UNL1       -0.4825
     21 O         141.8147  140.1651  160.1201 O.3     1  UNL1       -0.4714
     22 C         139.8740  141.8835  160.2953 C.ar    1  UNL1        0.0861
     23 C         139.3416  143.2686  160.0761 C.ar    1  UNL1        0.0209
     24 C         140.2176  144.3204  159.4625 C.ar    1  UNL1        0.0381
     25 C         141.6259  143.9871  159.0682 C.ar    1  UNL1        0.1368
     26 O         142.5019  145.0389  158.4547 O.3     1  UNL1       -0.5054
     27 C         142.1583  142.6019  159.2874 C.ar    1  UNL1        0.0747
     28 C         141.2823  141.5501  159.9009 C.ar    1  UNL1        0.1550
     29 H         142.1693  145.9041  158.3177 H       1  UNL1        0.2922
     30 O         140.1384  141.2243  163.2099 O.2     1  UNL1       -0.2525
     31 C         139.1302  140.5021  162.3661 C.2     1  UNL1        0.3045
     32 N         138.9980  140.8317  160.9088 N.am    1  UNL1       -0.2658
     33 N         138.2542  139.4504  162.9797 N.am    1  UNL1       -0.2903
     34 H         138.3363  140.3578  160.3550 H       1  UNL1        0.1565
     35 H         137.5925  138.9764  162.4259 H       1  UNL1        0.1509
     36 C         138.3864  139.1208  164.4370 C.3     1  UNL1        0.0732
     37 C         138.2882  139.5324  165.8761 C.3     1  UNL1        0.0213
     38 C         138.7135  138.1383  165.5222 C.3     1  UNL1        0.0213
@<TRIPOS>BOND
     1    30    31    2
     2    31    32   am
     3    32    22    1
     4    22    23   ar
     5    23    24   ar
     6    24    25   ar
     7    25    26    1
     8    25    27   ar
     9    27    28   ar
    10    28    21    1
    11    21     1    1
    12     1     2    1
    13     2     3    1
    14     2     5    1
    15     5     6    1
    16     6     7    1
    17     7     8    1
    18     8     9    1
    19     9    10    1
    20    10    11    1
    21     9    12    1
    22    12    13    1
    23    13    14   ar
    24    14    15   ar
    25    15    16    1
    26    15    17   ar
    27    17    18   ar
    28    18    19   ar
    29    19    20    1
    30    31    33   am
    31    33    36    1
    32    36    37    1
    33    37    38    1
    34    28    22   ar
    35    11     6    1
    36    19    13   ar
    37    38    36    1
    38    20     9    1
    39    32    34    1
    40    26    29    1
    41     3     4    1
    42    33    35    1
@<TRIPOS>MOLECULE
*****
 38 42 0 0 0
SMALL
GASTEIGER

@<TRIPOS>ATOM
      1 C         139.4182  140.5118  160.5160 C.3     1  UNL1        0.2358
      2 C         139.2399  139.0535  160.2128 C.3     1  UNL1        0.1700
      3 O         139.2300  138.5790  158.7899 O.3     1  UNL1       -0.3793
      4 H         139.3499  139.3363  158.1957 H       1  UNL1        0.2106
      5 C         139.0716  138.0698  161.3326 C.3     1  UNL1        0.1056
      6 N         139.4793  138.4436  162.7270 N.3     1  UNL1       -0.2703
      7 C         140.9089  138.2949  163.1557 C.3     1  UNL1        0.0758
      8 C         141.3165  138.6687  164.5500 C.3     1  UNL1        0.0577
      9 C         140.2945  139.1912  165.5156 C.3     1  UNL1        0.1399
     10 C         138.8648  139.3400  165.0868 C.3     1  UNL1        0.0577
     11 C         138.4572  138.9662  163.6925 C.3     1  UNL1        0.0758
     12 C         139.3889  139.7245  166.5859 C.3     1  UNL1        0.0695
     13 C         140.2140  139.9603  167.8162 C.ar    1  UNL1        0.0175
     14 C         139.8593  140.4778  169.1787 C.ar    1  UNL1        0.0285
     15 C         140.9201  140.6077  170.2312 C.ar    1  UNL1        0.1400
     16 F         140.5653  141.1252  171.5937 F       1  UNL1       -0.2042
     17 C         142.3356  140.2202  169.9213 C.ar    1  UNL1        0.0327
     18 C         142.6904  139.7027  168.5588 C.ar    1  UNL1        0.0389
     19 C         141.6296  139.5727  167.5063 C.ar    1  UNL1        0.1344
     20 O         141.6793  139.0974  166.0844 O.3     1  UNL1       -0.4825
     21 O         140.6519  141.2286  160.0534 O.3     1  UNL1       -0.4714
     22 C         142.5235  142.0080  161.6781 C.ar    1  UNL1        0.0861
     23 C         143.8353  141.7614  162.3626 C.ar    1  UNL1        0.0209
     24 C         144.5872  140.4889  162.1068 C.ar    1  UNL1        0.0381
     25 C         144.0273  139.4630  161.1667 C.ar    1  UNL1        0.1368
     26 O         144.7792  138.1905  160.9109 O.3     1  UNL1       -0.5054
     27 C         142.7155  139.7095  160.4821 C.ar    1  UNL1        0.0747
     28 C         141.9636  140.9820  160.7378 C.ar    1  UNL1        0.1550
     29 H         145.5986  138.0365  161.3385 H       1  UNL1        0.2922
     30 O         140.4511  142.1163  163.8444 O.2     1  UNL1       -0.2525
     31 C         140.7354  143.3346  163.0169 C.2     1  UNL1        0.3045
     32 N         141.7716  143.2805  161.9338 N.am    1  UNL1       -0.2658
     33 N         139.9835  144.6071  163.2727 N.am    1  UNL1       -0.2903
     34 H         141.9583  144.0802  161.3907 H       1  UNL1        0.1565
     35 H         140.1701  145.4068  162.7296 H       1  UNL1        0.1509
     36 C         138.9473  144.6613  164.3558 C.3     1  UNL1        0.0732
     37 C         137.5624  144.3567  164.8451 C.3     1  UNL1        0.0213
     38 C         138.5373  145.0596  165.7426 C.3     1  UNL1        0.0213
@<TRIPOS>BOND
     1    30    31    2
     2    31    32   am
     3    32    22    1
     4    22    23   ar
     5    23    24   ar
     6    24    25   ar
     7    25    26    1
     8    25    27   ar
     9    27    28   ar
    10    28    21    1
    11    21     1    1
    12     1     2    1
    13     2     3    1
    14     2     5    1
    15     5     6    1
    16     6     7    1
    17     7     8    1
    18     8     9    1
    19     9    10    1
    20    10    11    1
    21     9    12    1
    22    12    13    1
    23    13    14   ar
    24    14    15   ar
    25    15    16    1
    26    15    17   ar
    27    17    18   ar
    28    18    19   ar
    29    19    20    1
    30    31    33   am
    31    33    36    1
    32    36    37    1
    33    37    38    1
    34    28    22   ar
    35    11     6    1
    36    19    13   ar
    37    38    36    1
    38    20     9    1
    39    32    34    1
    40    26    29    1
    41     3     4    1
    42    33    35    1
@<TRIPOS>MOLECULE
*****
 38 42 0 0 0
SMALL
GASTEIGER

@<TRIPOS>ATOM
      1 C         139.9698  143.7321  160.0881 C.3     1  UNL1        0.2358
      2 C         140.7660  144.8557  160.6831 C.3     1  UNL1        0.1700
      3 O         141.9121  145.4495  159.9190 O.3     1  UNL1       -0.3793
      4 H         142.0021  144.9956  159.0665 H       1  UNL1        0.2106
      5 C         140.4160  145.3853  162.0421 C.3     1  UNL1        0.1056
      6 N         140.5801  144.5137  163.2519 N.3     1  UNL1       -0.2703
      7 C         139.3730  143.9349  163.9285 C.3     1  UNL1        0.0758
      8 C         139.5371  143.0634  165.1382 C.3     1  UNL1        0.0577
      9 C         140.9082  142.7706  165.6713 C.3     1  UNL1        0.1399
     10 C         142.1153  143.3494  164.9946 C.3     1  UNL1        0.0577
     11 C         141.9512  144.2209  163.7849 C.3     1  UNL1        0.0758
     12 C         142.2090  142.3919  166.3153 C.3     1  UNL1        0.0695
     13 C         141.9050  141.5119  167.4915 C.ar    1  UNL1        0.0175
     14 C         142.7913  140.8396  168.4977 C.ar    1  UNL1        0.0285
     15 C         142.1891  140.0023  169.5868 C.ar    1  UNL1        0.1400
     16 F         143.0755  139.3300  170.5930 F       1  UNL1       -0.2042
     17 C         140.7006  139.8371  169.6697 C.ar    1  UNL1        0.0327
     18 C         139.8142  140.5094  168.6635 C.ar    1  UNL1        0.0389
     19 C         140.4164  141.3468  167.5744 C.ar    1  UNL1        0.1344
     20 O         139.8004  142.1247  166.4495 O.3     1  UNL1       -0.4825
     21 O         140.6138  142.3975  159.8558 O.3     1  UNL1       -0.4714
     22 C         142.8295  141.8394  161.0925 C.ar    1  UNL1        0.0861
     23 C         143.5554  141.1522  162.2108 C.ar    1  UNL1        0.0209
     24 C         142.7916  140.3357  163.2109 C.ar    1  UNL1        0.0381
     25 C         141.3019  140.2066  163.0926 C.ar    1  UNL1        0.1368
     26 O         140.5381  139.3901  164.0926 O.3     1  UNL1       -0.5054
     27 C         140.5759  140.8938  161.9742 C.ar    1  UNL1        0.0747
     28 C         141.3397  141.7103  160.9742 C.ar    1  UNL1        0.1550
     29 H         140.9916  138.9608  164.7912 H       1  UNL1        0.2922
     30 O         144.1955  140.4924  158.7862 O.2     1  UNL1       -0.2525
     31 C         144.2763  141.9824  158.9393 C.2     1  UNL1        0.3045
     32 N         143.5933  142.6559  160.0925 N.am    1  UNL1       -0.2658
     33 N         145.0401  142.7988  157.9393 N.am    1  UNL1       -0.2903
     34 H         143.6463  143.6338  160.1930 H       1  UNL1        0.1565
     35 H         145.0931  143.7767  158.0398 H       1  UNL1        0.1509
     36 C         145.7231  142.1253  156.7861 C.3     1  UNL1        0.0732
     37 C         146.9086  141.9910  155.8770 C.3     1  UNL1        0.0213
     38 C         145.7206  141.0930  155.6978 C.3     1  UNL1        0.0213
@<TRIPOS>BOND
     1    30    31    2
     2    31    32   am
     3    32    22    1
     4    22    23   ar
     5    23    24   ar
     6    24    25   ar
     7    25    26    1
     8    25    27   ar
     9    27    28   ar
    10    28    21    1
    11    21     1    1
    12     1     2    1
    13     2     3    1
    14     2     5    1
    15     5     6    1
    16     6     7    1
    17     7     8    1
    18     8     9    1
    19     9    10    1
    20    10    11    1
    21     9    12    1
    22    12    13    1
    23    13    14   ar
    24    14    15   ar
    25    15    16    1
    26    15    17   ar
    27    17    18   ar
    28    18    19   ar
    29    19    20    1
    30    31    33   am
    31    33    36    1
    32    36    37    1
    33    37    38    1
    34    28    22   ar
    35    11     6    1
    36    19    13   ar
    37    38    36    1
    38    20     9    1
    39    32    34    1
    40    26    29    1
    41     3     4    1
    42    33    35    1
@<TRIPOS>MOLECULE
*****
 38 42 0 0 0
SMALL
GASTEIGER

@<TRIPOS>ATOM
      1 C         138.7526  139.4889  166.9410 C.3     1  UNL1        0.2358
      2 C         138.1734  138.2548  166.3152 C.3     1  UNL1        0.1700
      3 O         137.1387  137.4558  167.0508 O.3     1  UNL1       -0.3793
      4 H         136.9593  137.8711  167.9088 H       1  UNL1        0.2106
      5 C         138.6288  137.8198  164.9539 C.3     1  UNL1        0.1056
      6 N         139.0609  138.8425  163.9452 N.3     1  UNL1       -0.2703
      7 C         140.5150  139.1777  163.7926 C.3     1  UNL1        0.0758
      8 C         140.9471  140.2004  162.7839 C.3     1  UNL1        0.0577
      9 C         139.9250  140.8879  161.9279 C.3     1  UNL1        0.1399
     10 C         138.4710  140.5528  162.0806 C.3     1  UNL1        0.0577
     11 C         138.0389  139.5301  163.0892 C.3     1  UNL1        0.0758
     12 C         139.0224  141.6537  161.0065 C.3     1  UNL1        0.0695
     13 C         139.8752  142.5635  160.1727 C.ar    1  UNL1        0.0175
     14 C         139.5346  143.5509  159.0961 C.ar    1  UNL1        0.0285
     15 C         140.6236  144.3349  158.4257 C.ar    1  UNL1        0.1400
     16 F         140.2830  145.3223  157.3491 F       1  UNL1       -0.2042
     17 C         142.0531  144.1314  158.8317 C.ar    1  UNL1        0.0327
     18 C         142.3938  143.1440  159.9083 C.ar    1  UNL1        0.0389
     19 C         141.3048  142.3600  160.5788 C.ar    1  UNL1        0.1344
     20 O         141.3356  141.3245  161.6636 O.3     1  UNL1       -0.4825
     21 O         140.2306  139.5871  167.1772 O.3     1  UNL1       -0.4714
     22 C         141.5987  141.6454  167.9783 C.ar    1  UNL1        0.0861
     23 C         142.1250  142.5020  169.0914 C.ar    1  UNL1        0.0209
     24 C         141.8096  142.1569  170.5167 C.ar    1  UNL1        0.0381
     25 C         140.9679  140.9553  170.8289 C.ar    1  UNL1        0.1368
     26 O         140.6526  140.6102  172.2542 O.3     1  UNL1       -0.5054
     27 C         140.4416  140.0986  169.7157 C.ar    1  UNL1        0.0747
     28 C         140.7569  140.4437  168.2904 C.ar    1  UNL1        0.1550
     29 H         140.9814  141.1453  172.9495 H       1  UNL1        0.2922
     30 O         139.7946  143.4893  166.4469 O.2     1  UNL1       -0.2525
     31 C         141.0120  142.9124  165.7873 C.2     1  UNL1        0.3045
     32 N         141.9140  141.9905  166.5530 N.am    1  UNL1       -0.2658
     33 N         141.3274  143.2575  164.3620 N.am    1  UNL1       -0.2903
     34 H         142.7131  141.6119  166.1201 H       1  UNL1        0.1565
     35 H         142.1264  142.8789  163.9291 H       1  UNL1        0.1509
     36 C         140.4253  144.1795  163.5963 C.3     1  UNL1        0.0732
     37 C         140.2434  145.3271  162.6477 C.3     1  UNL1        0.0213
     38 C         139.0449  144.6287  163.2187 C.3     1  UNL1        0.0213
@<TRIPOS>BOND
     1    30    31    2
     2    31    32   am
     3    32    22    1
     4    22    23   ar
     5    23    24   ar
     6    24    25   ar
     7    25    26    1
     8    25    27   ar
     9    27    28   ar
    10    28    21    1
    11    21     1    1
    12     1     2    1
    13     2     3    1
    14     2     5    1
    15     5     6    1
    16     6     7    1
    17     7     8    1
    18     8     9    1
    19     9    10    1
    20    10    11    1
    21     9    12    1
    22    12    13    1
    23    13    14   ar
    24    14    15   ar
    25    15    16    1
    26    15    17   ar
    27    17    18   ar
    28    18    19   ar
    29    19    20    1
    30    31    33   am
    31    33    36    1
    32    36    37    1
    33    37    38    1
    34    28    22   ar
    35    11     6    1
    36    19    13   ar
    37    38    36    1
    38    20     9    1
    39    32    34    1
    40    26    29    1
    41     3     4    1
    42    33    35    1
@<TRIPOS>MOLECULE
*****
 38 42 0 0 0
SMALL
GASTEIGER

@<TRIPOS>ATOM
      1 C         141.2874  139.1038  160.4760 C.3     1  UNL1        0.2358
      2 C         142.4416  138.3688  161.0906 C.3     1  UNL1        0.1700
      3 O         142.6834  136.9292  160.7454 O.3     1  UNL1       -0.3793
      4 H         142.0082  136.6296  160.1167 H       1  UNL1        0.2106
      5 C         143.3539  139.0733  162.0505 C.3     1  UNL1        0.1056
      6 N         142.8482  139.4840  163.4017 N.3     1  UNL1       -0.2703
      7 C         142.9437  138.5342  164.5587 C.3     1  UNL1        0.0758
      8 C         142.4381  138.9449  165.9098 C.3     1  UNL1        0.0577
      9 C         141.8370  140.3054  166.1039 C.3     1  UNL1        0.1399
     10 C         141.7414  141.2552  164.9469 C.3     1  UNL1        0.0577
     11 C         142.2471  140.8445  163.5958 C.3     1  UNL1        0.0758
     12 C         141.2144  141.6260  166.4484 C.3     1  UNL1        0.0695
     13 C         140.8577  141.6044  167.9053 C.ar    1  UNL1        0.0175
     14 C         140.2187  142.6270  168.7975 C.ar    1  UNL1        0.0285
     15 C         139.9820  142.3157  170.2456 C.ar    1  UNL1        0.1400
     16 F         139.3430  143.3383  171.1377 F       1  UNL1       -0.2042
     17 C         140.3842  140.9819  170.8015 C.ar    1  UNL1        0.0327
     18 C         141.0232  139.9593  169.9094 C.ar    1  UNL1        0.0389
     19 C         141.2600  140.2705  168.4612 C.ar    1  UNL1        0.1344
     20 O         141.8652  139.4677  167.3480 O.3     1  UNL1       -0.4825
     21 O         139.8808  138.7232  160.8317 O.3     1  UNL1       -0.4714
     22 C         138.5119  140.5244  162.1092 C.ar    1  UNL1        0.0861
     23 C         137.8973  141.0290  163.3810 C.ar    1  UNL1        0.0209
     24 C         138.0370  140.2371  164.6473 C.ar    1  UNL1        0.0381
     25 C         138.7913  138.9406  164.6417 C.ar    1  UNL1        0.1368
     26 O         138.9310  138.1487  165.9080 O.3     1  UNL1       -0.5054
     27 C         139.4059  138.4359  163.3698 C.ar    1  UNL1        0.0747
     28 C         139.2662  139.2278  162.1036 C.ar    1  UNL1        0.1550
     29 H         138.5470  138.4640  166.7024 H       1  UNL1        0.2922
     30 O         140.3208  142.8616  161.5944 O.2     1  UNL1       -0.2525
     31 C         139.2767  142.4849  160.5855 C.2     1  UNL1        0.3045
     32 N         138.3723  141.3163  160.8429 N.am    1  UNL1       -0.2658
     33 N         139.1370  143.2768  159.3193 N.am    1  UNL1       -0.2903
     34 H         137.6870  141.0690  160.1808 H       1  UNL1        0.1565
     35 H         138.4517  143.0295  158.6571 H       1  UNL1        0.1509
     36 C         140.0414  144.4454  159.0619 C.3     1  UNL1        0.0732
     37 C         140.5357  145.5296  158.1507 C.3     1  UNL1        0.0213
     38 C         141.1137  145.3854  159.5273 C.3     1  UNL1        0.0213
@<TRIPOS>BOND
     1    30    31    2
     2    31    32   am
     3    32    22    1
     4    22    23   ar
     5    23    24   ar
     6    24    25   ar
     7    25    26    1
     8    25    27   ar
     9    27    28   ar
    10    28    21    1
    11    21     1    1
    12     1     2    1
    13     2     3    1
    14     2     5    1
    15     5     6    1
    16     6     7    1
    17     7     8    1
    18     8     9    1
    19     9    10    1
    20    10    11    1
    21     9    12    1
    22    12    13    1
    23    13    14   ar
    24    14    15   ar
    25    15    16    1
    26    15    17   ar
    27    17    18   ar
    28    18    19   ar
    29    19    20    1
    30    31    33   am
    31    33    36    1
    32    36    37    1
    33    37    38    1
    34    28    22   ar
    35    11     6    1
    36    19    13   ar
    37    38    36    1
    38    20     9    1
    39    32    34    1
    40    26    29    1
    41     3     4    1
    42    33    35    1
@<TRIPOS>MOLECULE
*****
 38 42 0 0 0
SMALL
GASTEIGER

@<TRIPOS>ATOM
      1 C         138.5636  140.1718  165.4912 C.3     1  UNL1        0.2358
      2 C         138.3170  138.7443  165.8803 C.3     1  UNL1        0.1700
      3 O         137.3453  138.4229  166.9769 O.3     1  UNL1       -0.3793
      4 H         136.9674  139.2455  167.3253 H       1  UNL1        0.2106
      5 C         139.0422  137.6381  165.1728 C.3     1  UNL1        0.1056
      6 N         139.4768  137.8170  163.7483 N.3     1  UNL1       -0.2703
      7 C         138.4512  137.9874  162.6670 C.3     1  UNL1        0.0758
      8 C         138.8858  138.1663  161.2426 C.3     1  UNL1        0.0577
      9 C         140.3460  138.1749  160.8994 C.3     1  UNL1        0.1399
     10 C         141.3716  138.0046  161.9807 C.3     1  UNL1        0.0577
     11 C         140.9370  137.8257  163.4051 C.3     1  UNL1        0.0758
     12 C         141.7625  138.2045  160.4069 C.3     1  UNL1        0.0695
     13 C         141.7324  138.4036  158.9204 C.ar    1  UNL1        0.0175
     14 C         142.8263  138.5118  157.8999 C.ar    1  UNL1        0.0285
     15 C         142.4851  138.7135  156.4532 C.ar    1  UNL1        0.1400
     16 F         143.5791  138.8218  155.4326 F       1  UNL1       -0.2042
     17 C         141.0500  138.8068  156.0270 C.ar    1  UNL1        0.0327
     18 C         139.9560  138.6985  157.0476 C.ar    1  UNL1        0.0389
     19 C         140.2972  138.4969  158.4943 C.ar    1  UNL1        0.1344
     20 O         139.4404  138.3556  159.7173 O.3     1  UNL1       -0.4825
     21 O         139.2726  141.0952  166.4371 O.3     1  UNL1       -0.4714
     22 C         141.5572  140.0854  167.1519 C.ar    1  UNL1        0.0861
     23 C         142.4540  139.5253  168.2159 C.ar    1  UNL1        0.0209
     24 C         141.9630  139.4149  169.6289 C.ar    1  UNL1        0.0381
     25 C         140.5753  139.8645  169.9781 C.ar    1  UNL1        0.1368
     26 O         140.0843  139.7541  171.3911 O.3     1  UNL1       -0.5054
     27 C         139.6784  140.4247  168.9141 C.ar    1  UNL1        0.0747
     28 C         140.1693  140.5351  167.5010 C.ar    1  UNL1        0.1550
     29 H         140.6445  139.4042  172.0558 H       1  UNL1        0.2922
     30 O         142.4719  142.7356  166.0846 O.2     1  UNL1       -0.2525
     31 C         142.5055  141.5210  165.2052 C.2     1  UNL1        0.3045
     32 N         142.0481  140.1959  165.7389 N.am    1  UNL1       -0.2658
     33 N         142.9964  141.6314  163.7921 N.am    1  UNL1       -0.2903
     34 H         142.0702  139.3986  165.1617 H       1  UNL1        0.1565
     35 H         143.0185  140.8342  163.2149 H       1  UNL1        0.1509
     36 C         143.4538  142.9565  163.2584 C.3     1  UNL1        0.0732
     37 C         143.2743  144.4410  163.1394 C.3     1  UNL1        0.0213
     38 C         144.4255  143.7673  162.4532 C.3     1  UNL1        0.0213
@<TRIPOS>BOND
     1    30    31    2
     2    31    32   am
     3    32    22    1
     4    22    23   ar
     5    23    24   ar
     6    24    25   ar
     7    25    26    1
     8    25    27   ar
     9    27    28   ar
    10    28    21    1
    11    21     1    1
    12     1     2    1
    13     2     3    1
    14     2     5    1
    15     5     6    1
    16     6     7    1
    17     7     8    1
    18     8     9    1
    19     9    10    1
    20    10    11    1
    21     9    12    1
    22    12    13    1
    23    13    14   ar
    24    14    15   ar
    25    15    16    1
    26    15    17   ar
    27    17    18   ar
    28    18    19   ar
    29    19    20    1
    30    31    33   am
    31    33    36    1
    32    36    37    1
    33    37    38    1
    34    28    22   ar
    35    11     6    1
    36    19    13   ar
    37    38    36    1
    38    20     9    1
    39    32    34    1
    40    26    29    1
    41     3     4    1
    42    33    35    1
@<TRIPOS>MOLECULE
*****
 38 42 0 0 0
SMALL
GASTEIGER

@<TRIPOS>ATOM
      1 C         139.3595  139.0923  159.0458 C.3     1  UNL1        0.2358
      2 C         139.9571  138.4515  160.2633 C.3     1  UNL1        0.1700
      3 O         141.4347  138.2022  160.3309 O.3     1  UNL1       -0.3793
      4 H         141.8526  138.5118  159.5121 H       1  UNL1        0.2106
      5 C         139.0771  138.0601  161.4133 C.3     1  UNL1        0.1056
      6 N         139.2504  138.7203  162.7490 N.3     1  UNL1       -0.2703
      7 C         138.9593  137.9564  164.0066 C.3     1  UNL1        0.0758
      8 C         139.1326  138.6166  165.3423 C.3     1  UNL1        0.0577
      9 C         139.5972  140.0407  165.4203 C.3     1  UNL1        0.1399
     10 C         139.8883  140.8046  164.1627 C.3     1  UNL1        0.0577
     11 C         139.7150  140.1444  162.8271 C.3     1  UNL1        0.0758
     12 C         140.0521  141.4508  165.6545 C.3     1  UNL1        0.0695
     13 C         140.0821  141.6884  167.1353 C.ar    1  UNL1        0.0175
     14 C         140.4504  142.8917  167.9515 C.ar    1  UNL1        0.0285
     15 C         140.3824  142.8318  169.4488 C.ar    1  UNL1        0.1400
     16 F         140.7506  144.0352  170.2650 F       1  UNL1       -0.2042
     17 C         139.9460  141.5686  170.1298 C.ar    1  UNL1        0.0327
     18 C         139.5777  140.3652  169.3136 C.ar    1  UNL1        0.0389
     19 C         139.6458  140.4250  167.8163 C.ar    1  UNL1        0.1344
     20 O         139.3461  139.4068  166.7565 O.3     1  UNL1       -0.4825
     21 O         139.1538  140.5775  159.0043 O.3     1  UNL1       -0.4714
     22 C         140.2870  142.9145  159.0691 C.ar    1  UNL1        0.0861
     23 C         141.4223  143.8186  158.6901 C.ar    1  UNL1        0.0209
     24 C         142.5598  143.2898  157.8676 C.ar    1  UNL1        0.0381
     25 C         142.5619  141.8570  157.4239 C.ar    1  UNL1        0.1368
     26 O         143.6993  141.3282  156.6013 O.3     1  UNL1       -0.5054
     27 C         141.4265  140.9528  157.8028 C.ar    1  UNL1        0.0747
     28 C         140.2891  141.4816  158.6254 C.ar    1  UNL1        0.1550
     29 H         144.4085  141.8930  156.3646 H       1  UNL1        0.2922
     30 O         140.6539  143.3854  162.0090 O.2     1  UNL1       -0.2525
     31 C         139.3330  143.6787  161.3616 C.2     1  UNL1        0.3045
     32 N         139.1496  143.4433  159.8917 N.am    1  UNL1       -0.2658
     33 N         138.1956  144.2075  162.1842 N.am    1  UNL1       -0.2903
     34 H         138.2826  143.6358  159.4667 H       1  UNL1        0.1565
     35 H         137.3286  144.4000  161.7593 H       1  UNL1        0.1509
     36 C         138.3791  144.4429  163.6542 C.3     1  UNL1        0.0732
     37 C         139.2333  144.8975  164.8003 C.3     1  UNL1        0.0213
     38 C         137.8426  144.3962  165.0542 C.3     1  UNL1        0.0213
@<TRIPOS>BOND
     1    30    31    2
     2    31    32   am
     3    32    22    1
     4    22    23   ar
     5    23    24   ar
     6    24    25   ar
     7    25    26    1
     8    25    27   ar
     9    27    28   ar
    10    28    21    1
    11    21     1    1
    12     1     2    1
    13     2     3    1
    14     2     5    1
    15     5     6    1
    16     6     7    1
    17     7     8    1
    18     8     9    1
    19     9    10    1
    20    10    11    1
    21     9    12    1
    22    12    13    1
    23    13    14   ar
    24    14    15   ar
    25    15    16    1
    26    15    17   ar
    27    17    18   ar
    28    18    19   ar
    29    19    20    1
    30    31    33   am
    31    33    36    1
    32    36    37    1
    33    37    38    1
    34    28    22   ar
    35    11     6    1
    36    19    13   ar
    37    38    36    1
    38    20     9    1
    39    32    34    1
    40    26    29    1
    41     3     4    1
    42    33    35    1
