@<TRIPOS>MOLECULE
*****
 60 66 0 0 0
SMALL
GASTEIGER

@<TRIPOS>ATOM
      1 C         141.8294  142.2399  167.0654 C.ar    1  UNL1        0.1090
      2 C         143.1249  142.4020  167.8039 C.ar    1  UNL1        0.0405
      3 C         143.2369  141.9502  169.2298 C.ar    1  UNL1        0.1596
      4 F         144.5325  142.1123  169.9684 F       1  UNL1       -0.2025
      5 C         142.0535  141.3363  169.9173 C.ar    1  UNL1        0.1316
      6 N         140.7580  141.1742  169.1788 N.ar    1  UNL1       -0.2073
      7 C         140.6459  141.6260  167.7528 C.ar    1  UNL1        0.2341
      8 N         140.4673  143.3710  165.1640 N.am    1  UNL1       -0.3024
      9 C         141.7173  142.6917  165.6395 C.2     1  UNL1        0.2504
     10 O         142.8552  142.4642  164.6890 O.2     1  UNL1       -0.2700
     11 H         139.7205  143.5203  165.7879 H       1  UNL1        0.1497
     12 C         140.1311  144.7266  160.8863 C.3     1  UNL1        0.0720
     13 C         140.4569  145.7179  161.9637 C.3     1  UNL1        0.0213
     14 C         140.5690  145.2661  163.3896 C.3     1  UNL1        0.0213
     15 C         140.3552  143.8228  163.7380 C.3     1  UNL1        0.0720
     16 C         140.0294  142.8315  162.6606 C.3     1  UNL1        0.0213
     17 C         139.9174  143.2833  161.2347 C.3     1  UNL1        0.0213
     18 C         141.2093  145.0953  158.5514 C.2     1  UNL1        0.2487
     19 O         142.5118  144.5603  159.0684 O.2     1  UNL1       -0.2700
     20 N         140.0190  145.1784  159.4603 N.am    1  UNL1       -0.3024
     21 H         139.1641  145.5295  159.1209 H       1  UNL1        0.1497
     22 C         138.8766  147.9841  154.9165 C.3     1  UNL1        0.0310
     23 C         139.9308  146.9916  155.3080 C.ar    1  UNL1       -0.0215
     24 C         140.8730  146.4509  154.2737 C.ar    1  UNL1       -0.0011
     25 C         141.9273  145.4583  154.6652 C.ar    1  UNL1        0.0364
     26 C         142.0394  145.0064  156.0911 C.ar    1  UNL1        0.1379
     27 O         143.0937  144.0139  156.4826 O.3     1  UNL1       -0.5054
     28 C         141.0972  145.5472  157.1254 C.ar    1  UNL1        0.0866
     29 C         140.0430  146.5397  156.7339 C.ar    1  UNL1        0.0033
     30 H         143.6822  143.6761  155.8365 H       1  UNL1        0.2922
     31 O         139.3504  141.4639  167.0144 O.3     1  UNL1       -0.4360
     32 C         139.0774  140.2047  166.2463 C.ar    1  UNL1        0.1472
     33 C         138.5840  138.9820  166.9615 C.ar    1  UNL1        0.0376
     34 C         138.3109  137.7228  166.1934 C.ar    1  UNL1        0.0031
     35 C         138.5314  137.6863  164.7102 C.ar    1  UNL1        0.0002
     36 C         139.0248  138.9090  163.9950 C.ar    1  UNL1        0.0028
     37 C         139.2978  140.1682  164.7631 C.ar    1  UNL1        0.0375
     38 C         139.2453  138.8725  162.5117 C.ar    1  UNL1       -0.0026
     39 C         138.2844  139.5678  161.5933 C.ar    1  UNL1       -0.0005
     40 C         138.5048  139.5313  160.1101 C.ar    1  UNL1       -0.0029
     41 C         139.6861  138.7997  159.5452 C.ar    1  UNL1       -0.0064
     42 C         140.6470  138.1044  160.4635 C.ar    1  UNL1       -0.0058
     43 C         140.4266  138.1409  161.9468 C.ar    1  UNL1       -0.0064
     44 C         139.9066  138.7632  158.0619 C.3     1  UNL1        0.0992
     45 N         141.2991  138.6658  157.5128 N.3     1  UNL1       -0.2666
     46 C         141.7529  137.4049  156.8387 C.3     1  UNL1        0.0882
     47 C         143.1454  137.3075  156.2897 C.3     1  UNL1        0.0702
     48 C         143.5993  136.0467  155.6156 C.3     1  UNL1        0.0186
     49 N         144.0840  138.4709  156.4147 N.3     1  UNL1       -0.2974
     50 C         143.6301  139.7316  157.0887 C.3     1  UNL1        0.0702
     51 C         144.5688  140.8951  157.2137 C.3     1  UNL1        0.0186
     52 C         142.2377  139.8291  157.6378 C.3     1  UNL1        0.0882
     53 H         144.3629  138.7273  155.4676 H       1  UNL1        0.1232
     54 C         141.3875  137.4456  162.8651 C.3     1  UNL1        0.0993
     55 N         142.4880  138.2215  163.5260 N.3     1  UNL1       -0.2646
     56 C         142.5470  138.3134  165.0221 C.3     1  UNL1        0.1049
     57 C         143.6475  139.0892  165.6830 C.3     1  UNL1        0.1595
     58 O         144.6891  139.7733  164.8479 O.3     1  UNL1       -0.3508
     59 C         144.6301  139.6814  163.3519 C.3     1  UNL1        0.1595
     60 C         143.5295  138.9055  162.6910 C.3     1  UNL1        0.1049
@<TRIPOS>BOND
     1    22    23    1
     2    23    24   ar
     3    24    25   ar
     4    25    26   ar
     5    26    27    1
     6    26    28   ar
     7    28    18    1
     8    18    19    2
     9    18    20   am
    10    12    20    1
    11    12    13    1
    12    13    14    1
    13    14    15    1
    14    15     8    1
    15     8     9   am
    16     9    10    2
    17     9     1    1
    18     1     2   ar
    19     2     3   ar
    20     3     4    1
    21     3     5   ar
    22     5     6   ar
    23     6     7   ar
    24     7    31    1
    25    31    32    1
    26    32    33   ar
    27    33    34   ar
    28    34    35   ar
    29    35    36   ar
    30    36    38    1
    31    38    39   ar
    32    39    40   ar
    33    40    41   ar
    34    41    44    1
    35    44    45    1
    36    45    46    1
    37    46    47    1
    38    47    48    1
    39    47    49    1
    40    49    50    1
    41    50    51    1
    42    50    52    1
    43    41    42   ar
    44    42    43   ar
    45    43    54    1
    46    54    55    1
    47    55    56    1
    48    56    57    1
    49    57    58    1
    50    58    59    1
    51    59    60    1
    52    36    37   ar
    53    15    16    1
    54    16    17    1
    55    28    29   ar
    56    29    23   ar
    57    17    12    1
    58     7     1   ar
    59    37    32   ar
    60    43    38   ar
    61    60    55    1
    62    52    45    1
    63    27    30    1
    64    20    21    1
    65     8    11    1
    66    49    53    1
@<TRIPOS>MOLECULE
*****
 60 66 0 0 0
SMALL
GASTEIGER

@<TRIPOS>ATOM
      1 C         141.6431  142.2166  166.5914 C.ar    1  UNL1        0.1090
      2 C         142.8938  142.4465  167.3871 C.ar    1  UNL1        0.0405
      3 C         142.9714  141.9853  168.8123 C.ar    1  UNL1        0.1596
      4 F         144.2221  142.2152  169.6080 F       1  UNL1       -0.2025
      5 C         141.7984  141.2942  169.4419 C.ar    1  UNL1        0.1316
      6 N         140.5477  141.0643  168.6463 N.ar    1  UNL1       -0.2073
      7 C         140.4701  141.5255  167.2210 C.ar    1  UNL1        0.2341
      8 N         140.3658  143.4416  164.6894 N.am    1  UNL1       -0.3024
      9 C         141.5655  142.6778  165.1662 C.2     1  UNL1        0.2504
     10 O         142.6876  142.3753  164.2179 O.2     1  UNL1       -0.2700
     11 H         139.6294  143.6401  165.3119 H       1  UNL1        0.1497
     12 C         140.1328  144.8252  160.4138 C.3     1  UNL1        0.0720
     13 C         140.0072  143.3660  160.7377 C.3     1  UNL1        0.0213
     14 C         140.0848  142.9048  162.1629 C.3     1  UNL1        0.0213
     15 C         140.2881  143.9028  163.2642 C.3     1  UNL1        0.0720
     16 C         140.4138  145.3620  162.9402 C.3     1  UNL1        0.0213
     17 C         140.3361  145.8231  161.5150 C.3     1  UNL1        0.0213
     18 C         141.2799  145.2574  158.1230 C.2     1  UNL1        0.2487
     19 O         142.5824  144.7672  158.6827 O.2     1  UNL1       -0.2700
     20 N         140.0552  145.2864  158.9885 N.am    1  UNL1       -0.3024
     21 H         139.2003  145.6082  158.6211 H       1  UNL1        0.1497
     22 C         139.2310  148.3777  154.5084 C.3     1  UNL1        0.0310
     23 C         140.1778  147.2788  154.8905 C.ar    1  UNL1       -0.0215
     24 C         141.0469  146.6412  153.8474 C.ar    1  UNL1       -0.0011
     25 C         141.9937  145.5423  154.2295 C.ar    1  UNL1        0.0364
     26 C         142.0714  145.0810  155.6547 C.ar    1  UNL1        0.1379
     27 O         143.0181  143.9821  156.0368 O.3     1  UNL1       -0.5054
     28 C         141.2023  145.7187  156.6978 C.ar    1  UNL1        0.0866
     29 C         140.2555  146.8176  156.3157 C.ar    1  UNL1        0.0033
     30 H         143.5610  143.5838  155.3852 H       1  UNL1        0.2922
     31 O         139.2194  141.2956  166.4254 O.3     1  UNL1       -0.4360
     32 C         139.1229  140.1158  165.5041 C.ar    1  UNL1        0.1472
     33 C         139.0572  138.7274  166.0679 C.ar    1  UNL1        0.0376
     34 C         138.9606  137.5476  165.1467 C.ar    1  UNL1        0.0031
     35 C         138.9297  137.7562  163.6616 C.ar    1  UNL1        0.0002
     36 C         138.9953  139.1446  163.0978 C.ar    1  UNL1        0.0028
     37 C         139.0919  140.3244  164.0191 C.ar    1  UNL1        0.0375
     38 C         138.9644  139.3533  161.6127 C.ar    1  UNL1       -0.0026
     39 C         137.8369  140.1190  160.9862 C.ar    1  UNL1       -0.0005
     40 C         137.8059  140.3277  159.5012 C.ar    1  UNL1       -0.0029
     41 C         138.9025  139.7708  158.6426 C.ar    1  UNL1       -0.0064
     42 C         140.0301  139.0051  159.2690 C.ar    1  UNL1       -0.0058
     43 C         140.0610  138.7964  160.7540 C.ar    1  UNL1       -0.0064
     44 C         138.8716  139.9794  157.1574 C.3     1  UNL1        0.0992
     45 N         137.8505  140.8949  156.5498 N.3     1  UNL1       -0.2666
     46 C         136.4673  140.3904  156.2626 C.3     1  UNL1        0.0882
     47 C         135.4462  141.3059  155.6550 C.3     1  UNL1        0.0702
     48 C         134.0631  140.8014  155.3677 C.3     1  UNL1        0.0186
     49 N         135.8082  142.7259  155.3346 N.3     1  UNL1       -0.2974
     50 C         137.1913  143.2304  155.6219 C.3     1  UNL1        0.0702
     51 C         137.5533  144.6504  155.3015 C.3     1  UNL1        0.0186
     52 C         138.2124  142.3149  156.2295 C.3     1  UNL1        0.0882
     53 H         135.1639  143.3192  155.8574 H       1  UNL1        0.1232
     54 C         141.1886  138.0308  161.3805 C.3     1  UNL1        0.0993
     55 N         142.3894  138.7600  161.9061 N.3     1  UNL1       -0.2646
     56 C         142.8930  138.4757  163.2902 C.3     1  UNL1        0.1049
     57 C         144.0938  139.2049  163.8159 C.3     1  UNL1        0.1595
     58 O         144.7910  140.2183  162.9575 O.3     1  UNL1       -0.3508
     59 C         144.2875  140.5026  161.5735 C.3     1  UNL1        0.1595
     60 C         143.0866  139.7734  161.0478 C.3     1  UNL1        0.1049
@<TRIPOS>BOND
     1    22    23    1
     2    23    24   ar
     3    24    25   ar
     4    25    26   ar
     5    26    27    1
     6    26    28   ar
     7    28    18    1
     8    18    19    2
     9    18    20   am
    10    12    20    1
    11    12    13    1
    12    13    14    1
    13    14    15    1
    14    15     8    1
    15     8     9   am
    16     9    10    2
    17     9     1    1
    18     1     2   ar
    19     2     3   ar
    20     3     4    1
    21     3     5   ar
    22     5     6   ar
    23     6     7   ar
    24     7    31    1
    25    31    32    1
    26    32    33   ar
    27    33    34   ar
    28    34    35   ar
    29    35    36   ar
    30    36    38    1
    31    38    39   ar
    32    39    40   ar
    33    40    41   ar
    34    41    44    1
    35    44    45    1
    36    45    46    1
    37    46    47    1
    38    47    48    1
    39    47    49    1
    40    49    50    1
    41    50    51    1
    42    50    52    1
    43    41    42   ar
    44    42    43   ar
    45    43    54    1
    46    54    55    1
    47    55    56    1
    48    56    57    1
    49    57    58    1
    50    58    59    1
    51    59    60    1
    52    36    37   ar
    53    15    16    1
    54    16    17    1
    55    28    29   ar
    56    29    23   ar
    57    17    12    1
    58     7     1   ar
    59    37    32   ar
    60    43    38   ar
    61    60    55    1
    62    52    45    1
    63    27    30    1
    64    20    21    1
    65     8    11    1
    66    49    53    1
@<TRIPOS>MOLECULE
*****
 60 66 0 0 0
SMALL
GASTEIGER

@<TRIPOS>ATOM
      1 C         140.0377  141.5456  165.9253 C.ar    1  UNL1        0.1090
      2 C         139.4322  140.6673  166.9798 C.ar    1  UNL1        0.0405
      3 C         139.9486  140.7200  168.3871 C.ar    1  UNL1        0.1596
      4 F         139.3430  139.8416  169.4416 F       1  UNL1       -0.2025
      5 C         141.0704  141.6511  168.7400 C.ar    1  UNL1        0.1316
      6 N         141.6759  142.5294  167.6856 N.ar    1  UNL1       -0.2073
      7 C         141.1596  142.4767  166.2782 C.ar    1  UNL1        0.2341
      8 N         139.7914  140.2893  163.6647 N.am    1  UNL1       -0.3024
      9 C         139.5213  141.4929  164.5180 C.2     1  UNL1        0.2504
     10 O         138.7348  142.6438  163.9641 O.2     1  UNL1       -0.2700
     11 H         140.3076  139.5339  164.0282 H       1  UNL1        0.1497
     12 C         138.2424  140.1310  159.4426 C.3     1  UNL1        0.0720
     13 C         139.6521  140.5692  159.7083 C.3     1  UNL1        0.0213
     14 C         140.1684  140.6219  161.1157 C.3     1  UNL1        0.0213
     15 C         139.2750  140.2365  162.2573 C.3     1  UNL1        0.0720
     16 C         137.8653  139.7984  161.9916 C.3     1  UNL1        0.0213
     17 C         137.3490  139.7456  160.5843 C.3     1  UNL1        0.0213
     18 C         137.5167  141.3482  157.2651 C.2     1  UNL1        0.2487
     19 O         137.8237  142.6710  157.9022 O.2     1  UNL1       -0.2700
     20 N         137.7260  140.0782  158.0353 N.am    1  UNL1       -0.3024
     21 H         137.5245  139.2100  157.6171 H       1  UNL1        0.1497
     22 C         136.6818  138.6976  152.8745 C.3     1  UNL1        0.0310
     23 C         136.5829  139.9701  153.6624 C.ar    1  UNL1       -0.0215
     24 C         135.9676  141.1898  153.0431 C.ar    1  UNL1       -0.0011
     25 C         135.8687  142.4624  153.8310 C.ar    1  UNL1        0.0364
     26 C         136.3850  142.5152  155.2383 C.ar    1  UNL1        0.1379
     27 O         136.2861  143.7877  156.0263 O.3     1  UNL1       -0.5054
     28 C         137.0003  141.2955  155.8577 C.ar    1  UNL1        0.0866
     29 C         137.0992  140.0229  155.0697 C.ar    1  UNL1        0.0033
     30 H         135.9017  144.5496  155.6394 H       1  UNL1        0.2922
     31 O         141.7651  143.3550  165.2238 O.3     1  UNL1       -0.4360
     32 C         142.9351  142.8669  164.4221 C.ar    1  UNL1        0.1472
     33 C         144.3145  142.9026  165.0102 C.ar    1  UNL1        0.0376
     34 C         145.4845  142.4144  164.2086 C.ar    1  UNL1        0.0031
     35 C         145.2752  141.8905  162.8187 C.ar    1  UNL1        0.0002
     36 C         143.8958  141.8548  162.2306 C.ar    1  UNL1        0.0028
     37 C         142.7258  142.3430  163.0322 C.ar    1  UNL1        0.0375
     38 C         143.6864  141.3310  160.8407 C.ar    1  UNL1       -0.0026
     39 C         143.3140  142.2713  159.7329 C.ar    1  UNL1       -0.0005
     40 C         143.1046  141.7475  158.3431 C.ar    1  UNL1       -0.0029
     41 C         143.2676  140.2833  158.0610 C.ar    1  UNL1       -0.0064
     42 C         143.6400  139.3430  159.1687 C.ar    1  UNL1       -0.0058
     43 C         143.8494  139.8668  160.5585 C.ar    1  UNL1       -0.0064
     44 C         143.0582  139.7594  156.6711 C.3     1  UNL1        0.0992
     45 N         142.3964  138.4296  156.4626 N.3     1  UNL1       -0.2666
     46 C         140.9547  138.3653  156.0533 C.3     1  UNL1        0.0882
     47 C         140.2928  137.0355  155.8448 C.3     1  UNL1        0.0702
     48 C         138.8512  136.9712  155.4356 C.3     1  UNL1        0.0186
     49 N         141.0726  135.7699  156.0457 N.3     1  UNL1       -0.2974
     50 C         142.5142  135.8342  156.4550 C.3     1  UNL1        0.0702
     51 C         143.2941  134.5687  156.6559 C.3     1  UNL1        0.0186
     52 C         143.1761  137.1641  156.6635 C.3     1  UNL1        0.0882
     53 H         141.0397  135.2605  155.1627 H       1  UNL1        0.1232
     54 C         144.2218  138.9265  161.6663 C.3     1  UNL1        0.0993
     55 N         143.1794  138.4664  162.6418 N.3     1  UNL1       -0.2646
     56 C         142.0079  137.6608  162.1633 C.3     1  UNL1        0.1049
     57 C         140.9655  137.2008  163.1388 C.3     1  UNL1        0.1595
     58 O         141.0945  137.5463  164.5928 O.3     1  UNL1       -0.3508
     59 C         142.2658  138.3518  165.0713 C.3     1  UNL1        0.1595
     60 C         143.3083  138.8119  164.0958 C.3     1  UNL1        0.1049
@<TRIPOS>BOND
     1    22    23    1
     2    23    24   ar
     3    24    25   ar
     4    25    26   ar
     5    26    27    1
     6    26    28   ar
     7    28    18    1
     8    18    19    2
     9    18    20   am
    10    12    20    1
    11    12    13    1
    12    13    14    1
    13    14    15    1
    14    15     8    1
    15     8     9   am
    16     9    10    2
    17     9     1    1
    18     1     2   ar
    19     2     3   ar
    20     3     4    1
    21     3     5   ar
    22     5     6   ar
    23     6     7   ar
    24     7    31    1
    25    31    32    1
    26    32    33   ar
    27    33    34   ar
    28    34    35   ar
    29    35    36   ar
    30    36    38    1
    31    38    39   ar
    32    39    40   ar
    33    40    41   ar
    34    41    44    1
    35    44    45    1
    36    45    46    1
    37    46    47    1
    38    47    48    1
    39    47    49    1
    40    49    50    1
    41    50    51    1
    42    50    52    1
    43    41    42   ar
    44    42    43   ar
    45    43    54    1
    46    54    55    1
    47    55    56    1
    48    56    57    1
    49    57    58    1
    50    58    59    1
    51    59    60    1
    52    36    37   ar
    53    15    16    1
    54    16    17    1
    55    28    29   ar
    56    29    23   ar
    57    17    12    1
    58     7     1   ar
    59    37    32   ar
    60    43    38   ar
    61    60    55    1
    62    52    45    1
    63    27    30    1
    64    20    21    1
    65     8    11    1
    66    49    53    1
@<TRIPOS>MOLECULE
*****
 60 66 0 0 0
SMALL
GASTEIGER

@<TRIPOS>ATOM
      1 C         138.4133  143.3063  156.6204 C.ar    1  UNL1        0.1090
      2 C         137.1011  142.7214  156.1890 C.ar    1  UNL1        0.0405
      3 C         136.6987  142.7658  154.7447 C.ar    1  UNL1        0.1596
      4 F         135.3864  142.1810  154.3134 F       1  UNL1       -0.2025
      5 C         137.6085  143.3950  153.7317 C.ar    1  UNL1        0.1316
      6 N         138.9208  143.9798  154.1629 N.ar    1  UNL1       -0.2073
      7 C         139.3232  143.9355  155.6073 C.ar    1  UNL1        0.2341
      8 N         138.6144  142.0068  158.8610 N.am    1  UNL1       -0.3024
      9 C         138.8157  143.2619  158.0647 C.2     1  UNL1        0.2504
     10 O         139.4194  144.4726  158.7126 O.2     1  UNL1       -0.2700
     11 H         138.2182  141.2122  158.4358 H       1  UNL1        0.1497
     12 C         139.8215  141.8735  163.1940 C.3     1  UNL1        0.0720
     13 C         140.5694  141.0575  162.1817 C.3     1  UNL1        0.0213
     14 C         140.1670  141.1020  160.7374 C.3     1  UNL1        0.0213
     15 C         139.0168  141.9624  160.3054 C.3     1  UNL1        0.0720
     16 C         138.2689  142.7783  161.3178 C.3     1  UNL1        0.0213
     17 C         138.6713  142.7339  162.7621 C.3     1  UNL1        0.0213
     18 C         139.3263  141.1760  165.6473 C.2     1  UNL1        0.2487
     19 O         138.0263  140.5673  165.2118 O.2     1  UNL1       -0.2700
     20 N         140.2239  141.8290  164.6384 N.am    1  UNL1       -0.3024
     21 H         141.0771  142.2285  164.9243 H       1  UNL1        0.1497
     22 C         141.7870  143.3011  169.7005 C.3     1  UNL1        0.0310
     23 C         140.9590  142.1941  169.1183 C.ar    1  UNL1       -0.0215
     24 C         140.5334  141.0428  169.9803 C.ar    1  UNL1       -0.0011
     25 C         139.7055  139.9358  169.3980 C.ar    1  UNL1        0.0364
     26 C         139.3031  139.9802  167.9537 C.ar    1  UNL1        0.1379
     27 O         138.4751  138.8732  167.3714 O.3     1  UNL1       -0.5054
     28 C         139.7287  141.1315  167.0917 C.ar    1  UNL1        0.0866
     29 C         140.5567  142.2385  167.6740 C.ar    1  UNL1        0.0033
     30 H         138.2093  138.1540  167.9099 H       1  UNL1        0.2922
     31 O         140.6354  144.5203  156.0386 O.3     1  UNL1       -0.4360
     32 C         141.8491  143.6448  156.1416 C.ar    1  UNL1        0.1472
     33 C         142.9190  143.7196  155.0930 C.ar    1  UNL1        0.0376
     34 C         144.1327  142.8441  155.1960 C.ar    1  UNL1        0.0031
     35 C         144.2763  141.8938  156.3476 C.ar    1  UNL1        0.0002
     36 C         143.2064  141.8190  157.3962 C.ar    1  UNL1        0.0028
     37 C         141.9927  142.6944  157.2932 C.ar    1  UNL1        0.0375
     38 C         143.3500  140.8686  158.5479 C.ar    1  UNL1       -0.0026
     39 C         142.9921  139.4221  158.3757 C.ar    1  UNL1       -0.0005
     40 C         143.1357  138.4718  159.5273 C.ar    1  UNL1       -0.0029
     41 C         143.6372  138.9679  160.8510 C.ar    1  UNL1       -0.0064
     42 C         143.9951  140.4144  161.0232 C.ar    1  UNL1       -0.0058
     43 C         143.8515  141.3647  159.8716 C.ar    1  UNL1       -0.0064
     44 C         143.7809  138.0175  162.0027 C.3     1  UNL1        0.0992
     45 N         142.8372  138.1006  163.1657 N.3     1  UNL1       -0.2666
     46 C         143.3255  138.5994  164.4935 C.3     1  UNL1        0.0882
     47 C         142.3819  138.6824  165.6566 C.3     1  UNL1        0.0702
     48 C         142.8700  139.1811  166.9843 C.3     1  UNL1        0.0186
     49 N         140.9500  138.2667  165.4918 N.3     1  UNL1       -0.2974
     50 C         140.4619  137.7679  164.1641 C.3     1  UNL1        0.0702
     51 C         139.0300  137.3522  163.9994 C.3     1  UNL1        0.0186
     52 C         141.4055  137.6849  163.0011 C.3     1  UNL1        0.0882
     53 H         140.3787  139.0774  165.7300 H       1  UNL1        0.1232
     54 C         144.2094  142.8112  160.0437 C.3     1  UNL1        0.0993
     55 N         143.5517  143.6236  161.1196 N.3     1  UNL1       -0.2646
     56 C         144.2884  143.9192  162.3924 C.3     1  UNL1        0.1049
     57 C         143.6308  144.7316  163.4682 C.3     1  UNL1        0.1595
     58 O         142.2365  145.2485  163.2713 O.3     1  UNL1       -0.3508
     59 C         141.4998  144.9529  161.9986 C.3     1  UNL1        0.1595
     60 C         142.1574  144.1405  160.9227 C.3     1  UNL1        0.1049
@<TRIPOS>BOND
     1    22    23    1
     2    23    24   ar
     3    24    25   ar
     4    25    26   ar
     5    26    27    1
     6    26    28   ar
     7    28    18    1
     8    18    19    2
     9    18    20   am
    10    12    20    1
    11    12    13    1
    12    13    14    1
    13    14    15    1
    14    15     8    1
    15     8     9   am
    16     9    10    2
    17     9     1    1
    18     1     2   ar
    19     2     3   ar
    20     3     4    1
    21     3     5   ar
    22     5     6   ar
    23     6     7   ar
    24     7    31    1
    25    31    32    1
    26    32    33   ar
    27    33    34   ar
    28    34    35   ar
    29    35    36   ar
    30    36    38    1
    31    38    39   ar
    32    39    40   ar
    33    40    41   ar
    34    41    44    1
    35    44    45    1
    36    45    46    1
    37    46    47    1
    38    47    48    1
    39    47    49    1
    40    49    50    1
    41    50    51    1
    42    50    52    1
    43    41    42   ar
    44    42    43   ar
    45    43    54    1
    46    54    55    1
    47    55    56    1
    48    56    57    1
    49    57    58    1
    50    58    59    1
    51    59    60    1
    52    36    37   ar
    53    15    16    1
    54    16    17    1
    55    28    29   ar
    56    29    23   ar
    57    17    12    1
    58     7     1   ar
    59    37    32   ar
    60    43    38   ar
    61    60    55    1
    62    52    45    1
    63    27    30    1
    64    20    21    1
    65     8    11    1
    66    49    53    1
@<TRIPOS>MOLECULE
*****
 60 66 0 0 0
SMALL
GASTEIGER

@<TRIPOS>ATOM
      1 C         142.5517  140.9840  165.9382 C.ar    1  UNL1        0.1090
      2 C         142.8223  139.8022  166.8215 C.ar    1  UNL1        0.0405
      3 C         142.4237  139.8395  168.2671 C.ar    1  UNL1        0.1596
      4 F         142.6943  138.6577  169.1504 F       1  UNL1       -0.2025
      5 C         141.7545  141.0585  168.8294 C.ar    1  UNL1        0.1316
      6 N         141.4840  142.2403  167.9461 N.ar    1  UNL1       -0.2073
      7 C         141.8825  142.2030  166.5005 C.ar    1  UNL1        0.2341
      8 N         142.2452  140.0233  163.5439 N.am    1  UNL1       -0.3024
      9 C         142.9502  140.9467  164.4926 C.2     1  UNL1        0.2504
     10 O         144.0538  141.8328  163.9958 O.2     1  UNL1       -0.2700
     11 H         141.5208  139.4417  163.8700 H       1  UNL1        0.1497
     12 C         143.4409  139.9113  159.2071 C.3     1  UNL1        0.0720
     13 C         144.1941  139.0937  160.2141 C.3     1  UNL1        0.0213
     14 C         143.7956  139.1310  161.6596 C.3     1  UNL1        0.0213
     15 C         142.6437  139.9860  162.0982 C.3     1  UNL1        0.0720
     16 C         141.8905  140.8036  161.0912 C.3     1  UNL1        0.0213
     17 C         142.2890  140.7662  159.6457 C.3     1  UNL1        0.0213
     18 C         144.6617  140.9862  157.1812 C.2     1  UNL1        0.2487
     19 O         145.0855  142.1358  158.0465 O.2     1  UNL1       -0.2700
     20 N         143.8394  139.8739  157.7614 N.am    1  UNL1       -0.3024
     21 H         143.5613  139.1194  157.1935 H       1  UNL1        0.1497
     22 C         145.9707  143.4696  152.8086 C.3     1  UNL1        0.0310
     23 C         145.7147  142.1906  153.5493 C.ar    1  UNL1       -0.0215
     24 C         145.8573  140.8743  152.8444 C.ar    1  UNL1       -0.0011
     25 C         145.6013  139.5953  153.5850 C.ar    1  UNL1        0.0364
     26 C         145.2028  139.6325  155.0306 C.ar    1  UNL1        0.1379
     27 O         144.9469  138.3535  155.7713 O.3     1  UNL1       -0.5054
     28 C         145.0602  140.9488  155.7355 C.ar    1  UNL1        0.0866
     29 C         145.3162  142.2279  154.9949 C.ar    1  UNL1        0.0033
     30 H         145.0359  137.5312  155.3309 H       1  UNL1        0.2922
     31 O         141.6119  143.3848  165.6172 O.3     1  UNL1       -0.4360
     32 C         140.3068  143.4910  164.8856 C.ar    1  UNL1        0.1472
     33 C         139.1408  144.1818  165.5283 C.ar    1  UNL1        0.0376
     34 C         137.8356  144.2881  164.7966 C.ar    1  UNL1        0.0031
     35 C         137.6965  143.7036  163.4222 C.ar    1  UNL1        0.0002
     36 C         138.8626  143.0128  162.7795 C.ar    1  UNL1        0.0028
     37 C         140.1677  142.9065  163.5112 C.ar    1  UNL1        0.0375
     38 C         138.7235  142.4282  161.4051 C.ar    1  UNL1       -0.0026
     39 C         139.2258  143.1874  160.2129 C.ar    1  UNL1       -0.0005
     40 C         139.0867  142.6029  158.8385 C.ar    1  UNL1       -0.0029
     41 C         138.4454  141.2592  158.6563 C.ar    1  UNL1       -0.0064
     42 C         137.9432  140.5001  159.8485 C.ar    1  UNL1       -0.0058
     43 C         138.0822  141.0846  161.2229 C.ar    1  UNL1       -0.0064
     44 C         138.3064  140.6747  157.2819 C.3     1  UNL1        0.0992
     45 N         139.5003  140.0802  156.5954 N.3     1  UNL1       -0.2666
     46 C         140.1605  140.8162  155.4674 C.3     1  UNL1        0.0882
     47 C         141.3544  140.2217  154.7809 C.3     1  UNL1        0.0702
     48 C         142.0146  140.9577  153.6529 C.3     1  UNL1        0.0186
     49 N         141.8880  138.8911  155.2225 N.3     1  UNL1       -0.2974
     50 C         141.2278  138.1552  156.3505 C.3     1  UNL1        0.0702
     51 C         141.7614  136.8246  156.7921 C.3     1  UNL1        0.0186
     52 C         140.0339  138.7497  157.0369 C.3     1  UNL1        0.0882
     53 H         142.8593  139.0396  155.4963 H       1  UNL1        0.1232
     54 C         137.5800  140.3254  162.4151 C.3     1  UNL1        0.0993
     55 N         138.5034  139.4134  163.1671 N.3     1  UNL1       -0.2646
     56 C         139.2327  138.3209  162.4426 C.3     1  UNL1        0.1049
     57 C         140.1562  137.4090  163.1946 C.3     1  UNL1        0.1595
     58 O         140.3504  137.5894  164.6710 O.3     1  UNL1       -0.3508
     59 C         139.6212  138.6818  165.3954 C.3     1  UNL1        0.1595
     60 C         138.6977  139.5939  164.6435 C.3     1  UNL1        0.1049
@<TRIPOS>BOND
     1    22    23    1
     2    23    24   ar
     3    24    25   ar
     4    25    26   ar
     5    26    27    1
     6    26    28   ar
     7    28    18    1
     8    18    19    2
     9    18    20   am
    10    12    20    1
    11    12    13    1
    12    13    14    1
    13    14    15    1
    14    15     8    1
    15     8     9   am
    16     9    10    2
    17     9     1    1
    18     1     2   ar
    19     2     3   ar
    20     3     4    1
    21     3     5   ar
    22     5     6   ar
    23     6     7   ar
    24     7    31    1
    25    31    32    1
    26    32    33   ar
    27    33    34   ar
    28    34    35   ar
    29    35    36   ar
    30    36    38    1
    31    38    39   ar
    32    39    40   ar
    33    40    41   ar
    34    41    44    1
    35    44    45    1
    36    45    46    1
    37    46    47    1
    38    47    48    1
    39    47    49    1
    40    49    50    1
    41    50    51    1
    42    50    52    1
    43    41    42   ar
    44    42    43   ar
    45    43    54    1
    46    54    55    1
    47    55    56    1
    48    56    57    1
    49    57    58    1
    50    58    59    1
    51    59    60    1
    52    36    37   ar
    53    15    16    1
    54    16    17    1
    55    28    29   ar
    56    29    23   ar
    57    17    12    1
    58     7     1   ar
    59    37    32   ar
    60    43    38   ar
    61    60    55    1
    62    52    45    1
    63    27    30    1
    64    20    21    1
    65     8    11    1
    66    49    53    1
@<TRIPOS>MOLECULE
*****
 60 66 0 0 0
SMALL
GASTEIGER

@<TRIPOS>ATOM
      1 C         140.3245  141.7140  167.6393 C.ar    1  UNL1        0.1090
      2 C         140.1107  142.6962  168.7527 C.ar    1  UNL1        0.0405
      3 C         140.1349  142.2307  170.1784 C.ar    1  UNL1        0.1596
      4 F         139.9211  143.2130  171.2918 F       1  UNL1       -0.2025
      5 C         140.3727  140.7830  170.4908 C.ar    1  UNL1        0.1316
      6 N         140.5865  139.8008  169.3775 N.ar    1  UNL1       -0.2073
      7 C         140.5624  140.2663  167.9517 C.ar    1  UNL1        0.2341
      8 N         139.2899  141.6173  165.2581 N.am    1  UNL1       -0.3024
      9 C         140.3004  142.1794  166.2136 C.2     1  UNL1        0.2504
     10 O         141.2867  143.2071  165.7433 O.2     1  UNL1       -0.2700
     11 H         138.6426  140.9428  165.5668 H       1  UNL1        0.1497
     12 C         139.2174  143.0136  160.9809 C.3     1  UNL1        0.0720
     13 C         138.1670  143.4859  161.9419 C.3     1  UNL1        0.0213
     14 C         138.1912  143.0205  163.3676 C.3     1  UNL1        0.0213
     15 C         139.2658  142.0827  163.8323 C.3     1  UNL1        0.0720
     16 C         140.3162  141.6104  162.8713 C.3     1  UNL1        0.0213
     17 C         140.2920  142.0759  161.4456 C.3     1  UNL1        0.0213
     18 C         140.1717  144.5155  159.0878 C.2     1  UNL1        0.2487
     19 O         141.1744  145.0865  160.0462 O.2     1  UNL1       -0.2700
     20 N         139.1932  143.4791  159.5551 N.am    1  UNL1       -0.3024
     21 H         138.5352  143.1043  158.9260 H       1  UNL1        0.1497
     22 C         137.6070  145.2024  154.6212 C.3     1  UNL1        0.0310
     23 C         138.8652  145.3244  155.4287 C.ar    1  UNL1       -0.0215
     24 C         140.0992  145.9118  154.8105 C.ar    1  UNL1       -0.0011
     25 C         141.3573  146.0338  155.6181 C.ar    1  UNL1        0.0364
     26 C         141.3815  145.5684  157.0438 C.ar    1  UNL1        0.1379
     27 O         142.6397  145.6904  157.8513 O.3     1  UNL1       -0.5054
     28 C         140.1476  144.9810  157.6620 C.ar    1  UNL1        0.0866
     29 C         138.8894  144.8589  156.8544 C.ar    1  UNL1        0.0033
     30 H         143.4105  146.0573  157.4651 H       1  UNL1        0.2922
     31 O         140.7761  139.2840  166.8384 O.3     1  UNL1       -0.4360
     32 C         142.1150  139.1889  166.1689 C.ar    1  UNL1        0.1472
     33 C         143.2262  138.4200  166.8201 C.ar    1  UNL1        0.0376
     34 C         144.5652  138.3249  166.1506 C.ar    1  UNL1        0.0031
     35 C         144.7929  138.9985  164.8299 C.ar    1  UNL1        0.0002
     36 C         143.6817  139.7674  164.1787 C.ar    1  UNL1        0.0028
     37 C         142.3428  139.8625  164.8482 C.ar    1  UNL1        0.0375
     38 C         143.9094  140.4411  162.8580 C.ar    1  UNL1       -0.0026
     39 C         144.5289  141.8063  162.8094 C.ar    1  UNL1       -0.0005
     40 C         144.7567  142.4801  161.4888 C.ar    1  UNL1       -0.0029
     41 C         144.3649  141.7886  160.2167 C.ar    1  UNL1       -0.0064
     42 C         143.7453  140.4234  160.2652 C.ar    1  UNL1       -0.0058
     43 C         143.5176  139.7496  161.5859 C.ar    1  UNL1       -0.0064
     44 C         144.5926  142.4623  158.8959 C.3     1  UNL1        0.0992
     45 N         144.0361  141.8590  157.6404 N.3     1  UNL1       -0.2666
     46 C         144.8769  140.9263  156.8198 C.3     1  UNL1        0.0882
     47 C         144.3204  140.3230  155.5643 C.3     1  UNL1        0.0702
     48 C         145.1612  139.3904  154.7438 C.3     1  UNL1        0.0186
     49 N         142.9231  140.6523  155.1294 N.3     1  UNL1       -0.2974
     50 C         142.0823  141.5848  155.9500 C.3     1  UNL1        0.0702
     51 C         140.6850  141.9141  155.5150 C.3     1  UNL1        0.0186
     52 C         142.6388  142.1882  157.2055 C.3     1  UNL1        0.0882
     53 H         142.4158  139.7690  155.0751 H       1  UNL1        0.1232
     54 C         142.8981  138.3844  161.6344 C.3     1  UNL1        0.0993
     55 N         141.4053  138.2376  161.6298 N.3     1  UNL1       -0.2646
     56 C         140.6192  138.6059  160.4065 C.3     1  UNL1        0.1049
     57 C         139.1265  138.4591  160.4019 C.3     1  UNL1        0.1595
     58 O         138.4197  137.9440  161.6206 O.3     1  UNL1       -0.3508
     59 C         139.2058  137.5757  162.8439 C.3     1  UNL1        0.1595
     60 C         140.6986  137.7225  162.8485 C.3     1  UNL1        0.1049
@<TRIPOS>BOND
     1    22    23    1
     2    23    24   ar
     3    24    25   ar
     4    25    26   ar
     5    26    27    1
     6    26    28   ar
     7    28    18    1
     8    18    19    2
     9    18    20   am
    10    12    20    1
    11    12    13    1
    12    13    14    1
    13    14    15    1
    14    15     8    1
    15     8     9   am
    16     9    10    2
    17     9     1    1
    18     1     2   ar
    19     2     3   ar
    20     3     4    1
    21     3     5   ar
    22     5     6   ar
    23     6     7   ar
    24     7    31    1
    25    31    32    1
    26    32    33   ar
    27    33    34   ar
    28    34    35   ar
    29    35    36   ar
    30    36    38    1
    31    38    39   ar
    32    39    40   ar
    33    40    41   ar
    34    41    44    1
    35    44    45    1
    36    45    46    1
    37    46    47    1
    38    47    48    1
    39    47    49    1
    40    49    50    1
    41    50    51    1
    42    50    52    1
    43    41    42   ar
    44    42    43   ar
    45    43    54    1
    46    54    55    1
    47    55    56    1
    48    56    57    1
    49    57    58    1
    50    58    59    1
    51    59    60    1
    52    36    37   ar
    53    15    16    1
    54    16    17    1
    55    28    29   ar
    56    29    23   ar
    57    17    12    1
    58     7     1   ar
    59    37    32   ar
    60    43    38   ar
    61    60    55    1
    62    52    45    1
    63    27    30    1
    64    20    21    1
    65     8    11    1
    66    49    53    1
@<TRIPOS>MOLECULE
*****
 60 66 0 0 0
SMALL
GASTEIGER

@<TRIPOS>ATOM
      1 C         140.6870  139.9549  166.4749 C.ar    1  UNL1        0.1090
      2 C         139.4931  139.8791  167.3799 C.ar    1  UNL1        0.0405
      3 C         139.6003  140.3405  168.8031 C.ar    1  UNL1        0.1596
      4 F         138.4063  140.2647  169.7081 F       1  UNL1       -0.2025
      5 C         140.9013  140.8778  169.3214 C.ar    1  UNL1        0.1316
      6 N         142.0952  140.9536  168.4165 N.ar    1  UNL1       -0.2073
      7 C         141.9880  140.4922  166.9932 C.ar    1  UNL1        0.2341
      8 N         139.8400  140.3261  164.0471 N.am    1  UNL1       -0.3024
      9 C         140.5798  139.4935  165.0517 C.2     1  UNL1        0.2504
     10 O         141.2125  138.1994  164.6332 O.2     1  UNL1       -0.2700
     11 H         139.4248  141.1755  164.3218 H       1  UNL1        0.1497
     12 C         139.5184  138.9419  159.7774 C.3     1  UNL1        0.0720
     13 C         138.8225  138.1812  160.8668 C.3     1  UNL1        0.0213
     14 C         138.9297  138.6426  162.2900 C.3     1  UNL1        0.0213
     15 C         139.7329  139.8647  162.6238 C.3     1  UNL1        0.0720
     16 C         140.4288  140.6254  161.5343 C.3     1  UNL1        0.0213
     17 C         140.3216  140.1640  160.1111 C.3     1  UNL1        0.0213
     18 C         140.6201  137.9439  157.6465 C.2     1  UNL1        0.2487
     19 O         141.9362  137.8686  158.3622 O.2     1  UNL1       -0.2700
     20 N         139.4112  138.4805  158.3541 N.am    1  UNL1       -0.3024
     21 H         138.5474  138.5299  157.8843 H       1  UNL1        0.1497
     22 C         137.7984  137.2657  153.3363 C.3     1  UNL1        0.0310
     23 C         139.1021  137.1434  154.0681 C.ar    1  UNL1       -0.0215
     24 C         140.2984  136.5597  153.3768 C.ar    1  UNL1       -0.0011
     25 C         141.6020  136.4374  154.1087 C.ar    1  UNL1        0.0364
     26 C         141.7093  136.8988  155.5319 C.ar    1  UNL1        0.1379
     27 O         143.0129  136.7765  156.2638 O.3     1  UNL1       -0.5054
     28 C         140.5129  137.4825  156.2232 C.ar    1  UNL1        0.0866
     29 C         139.2093  137.6048  155.4914 C.ar    1  UNL1        0.0033
     30 H         143.7602  136.4119  155.8319 H       1  UNL1        0.2922
     31 O         143.1819  140.5681  166.0883 O.3     1  UNL1       -0.4360
     32 C         143.4551  141.8212  165.3105 C.ar    1  UNL1        0.1472
     33 C         144.0802  143.0039  165.9891 C.ar    1  UNL1        0.0376
     34 C         144.3533  144.2570  165.2113 C.ar    1  UNL1        0.0031
     35 C         144.0014  144.3275  163.7549 C.ar    1  UNL1        0.0002
     36 C         143.3762  143.1449  163.0763 C.ar    1  UNL1        0.0028
     37 C         143.1031  141.8917  163.8541 C.ar    1  UNL1        0.0375
     38 C         143.0242  143.2153  161.6199 C.ar    1  UNL1       -0.0026
     39 C         143.8031  142.4126  160.6204 C.ar    1  UNL1       -0.0005
     40 C         143.4511  142.4831  159.1640 C.ar    1  UNL1       -0.0029
     41 C         142.3203  143.3562  158.7071 C.ar    1  UNL1       -0.0064
     42 C         141.5414  144.1589  159.7066 C.ar    1  UNL1       -0.0058
     43 C         141.8934  144.0885  161.1630 C.ar    1  UNL1       -0.0064
     44 C         141.9683  143.4267  157.2506 C.3     1  UNL1        0.0992
     45 N         140.5301  143.4084  156.8249 N.3     1  UNL1       -0.2666
     46 C         139.9436  144.5911  156.1126 C.3     1  UNL1        0.0882
     47 C         138.5054  144.5728  155.6869 C.3     1  UNL1        0.0702
     48 C         137.9190  145.7554  154.9747 C.3     1  UNL1        0.0186
     49 N         137.6536  143.3717  155.9735 N.3     1  UNL1       -0.2974
     50 C         138.2401  142.1891  156.6858 C.3     1  UNL1        0.0702
     51 C         137.3883  140.9881  156.9724 C.3     1  UNL1        0.0186
     52 C         139.6783  142.2074  157.1115 C.3     1  UNL1        0.0882
     53 H         137.3098  143.0334  155.0748 H       1  UNL1        0.1232
     54 C         141.1145  144.8912  162.1625 C.3     1  UNL1        0.0993
     55 N         140.0313  144.2379  162.9687 N.3     1  UNL1       -0.2646
     56 C         140.1765  144.1108  164.4562 C.3     1  UNL1        0.1049
     57 C         139.0934  143.4575  165.2624 C.3     1  UNL1        0.1595
     58 O         137.8650  142.9312  164.5811 O.3     1  UNL1       -0.3508
     59 C         137.7198  143.0583  163.0935 C.3     1  UNL1        0.1595
     60 C         138.8030  143.7117  162.2873 C.3     1  UNL1        0.1049
@<TRIPOS>BOND
     1    22    23    1
     2    23    24   ar
     3    24    25   ar
     4    25    26   ar
     5    26    27    1
     6    26    28   ar
     7    28    18    1
     8    18    19    2
     9    18    20   am
    10    12    20    1
    11    12    13    1
    12    13    14    1
    13    14    15    1
    14    15     8    1
    15     8     9   am
    16     9    10    2
    17     9     1    1
    18     1     2   ar
    19     2     3   ar
    20     3     4    1
    21     3     5   ar
    22     5     6   ar
    23     6     7   ar
    24     7    31    1
    25    31    32    1
    26    32    33   ar
    27    33    34   ar
    28    34    35   ar
    29    35    36   ar
    30    36    38    1
    31    38    39   ar
    32    39    40   ar
    33    40    41   ar
    34    41    44    1
    35    44    45    1
    36    45    46    1
    37    46    47    1
    38    47    48    1
    39    47    49    1
    40    49    50    1
    41    50    51    1
    42    50    52    1
    43    41    42   ar
    44    42    43   ar
    45    43    54    1
    46    54    55    1
    47    55    56    1
    48    56    57    1
    49    57    58    1
    50    58    59    1
    51    59    60    1
    52    36    37   ar
    53    15    16    1
    54    16    17    1
    55    28    29   ar
    56    29    23   ar
    57    17    12    1
    58     7     1   ar
    59    37    32   ar
    60    43    38   ar
    61    60    55    1
    62    52    45    1
    63    27    30    1
    64    20    21    1
    65     8    11    1
    66    49    53    1
@<TRIPOS>MOLECULE
*****
 60 66 0 0 0
SMALL
GASTEIGER

@<TRIPOS>ATOM
      1 C         141.3150  145.5775  156.3214 C.ar    1  UNL1        0.1090
      2 C         140.2827  146.6045  155.9612 C.ar    1  UNL1        0.0405
      3 C         140.0973  147.0115  154.5294 C.ar    1  UNL1        0.1596
      4 F         139.0650  148.0385  154.1693 F       1  UNL1       -0.2025
      5 C         140.9441  146.3914  153.4578 C.ar    1  UNL1        0.1316
      6 N         141.9764  145.3644  153.8179 N.ar    1  UNL1       -0.2073
      7 C         142.1619  144.9574  155.2497 C.ar    1  UNL1        0.2341
      8 N         140.3047  144.8847  158.6124 N.am    1  UNL1       -0.3024
      9 C         141.5005  145.1706  157.7531 C.2     1  UNL1        0.2504
     10 O         142.8817  145.0495  158.3256 O.2     1  UNL1       -0.2700
     11 H         139.3982  144.9641  158.2367 H       1  UNL1        0.1497
     12 C         140.8609  143.6637  162.9077 C.3     1  UNL1        0.0720
     13 C         141.0211  142.6506  161.8133 C.3     1  UNL1        0.0213
     14 C         140.8357  143.0576  160.3816 C.3     1  UNL1        0.0213
     15 C         140.4901  144.4777  160.0443 C.3     1  UNL1        0.0720
     16 C         140.3300  145.4909  161.1387 C.3     1  UNL1        0.0213
     17 C         140.5154  145.0839  162.5704 C.3     1  UNL1        0.0213
     18 C         141.2807  141.8162  164.6855 C.2     1  UNL1        0.2487
     19 O         141.3297  140.7825  163.5997 O.2     1  UNL1       -0.2700
     20 N         141.0463  143.2568  164.3396 N.am    1  UNL1       -0.3024
     21 H         141.0142  143.9352  165.0523 H       1  UNL1        0.1497
     22 C         140.2628  142.5211  169.7320 C.3     1  UNL1        0.0310
     23 C         140.9571  141.7617  168.6406 C.ar    1  UNL1       -0.0215
     24 C         141.8368  140.5954  168.9809 C.ar    1  UNL1       -0.0011
     25 C         142.5312  139.8361  167.8895 C.ar    1  UNL1        0.0364
     26 C         142.3458  140.2430  166.4577 C.ar    1  UNL1        0.1379
     27 O         143.0402  139.4836  165.3663 O.3     1  UNL1       -0.5054
     28 C         141.4661  141.4092  166.1174 C.ar    1  UNL1        0.0866
     29 C         140.7718  142.1686  167.2088 C.ar    1  UNL1        0.0033
     30 H         143.5897  138.7550  165.5789 H       1  UNL1        0.2922
     31 O         143.1941  143.9305  155.6098 O.3     1  UNL1       -0.4360
     32 C         142.8167  142.4805  155.6806 C.ar    1  UNL1        0.1472
     33 C         143.2338  141.5426  154.5869 C.ar    1  UNL1        0.0376
     34 C         142.8564  140.0926  154.6577 C.ar    1  UNL1        0.0031
     35 C         142.0618  139.5804  155.8222 C.ar    1  UNL1        0.0002
     36 C         141.6446  140.5183  156.9160 C.ar    1  UNL1        0.0028
     37 C         142.0221  141.9683  156.8452 C.ar    1  UNL1        0.0375
     38 C         140.8500  140.0062  158.0806 C.ar    1  UNL1       -0.0026
     39 C         139.3509  140.0138  158.0272 C.ar    1  UNL1       -0.0005
     40 C         138.5563  139.5017  159.1917 C.ar    1  UNL1       -0.0029
     41 C         139.2607  138.9820  160.4098 C.ar    1  UNL1       -0.0064
     42 C         140.7597  138.9743  160.4632 C.ar    1  UNL1       -0.0058
     43 C         141.5543  139.4864  159.2987 C.ar    1  UNL1       -0.0064
     44 C         138.4660  138.4699  161.5744 C.3     1  UNL1        0.0992
     45 N         138.2930  139.3217  162.7969 N.3     1  UNL1       -0.2666
     46 C         137.9244  140.7690  162.6565 C.3     1  UNL1        0.0882
     47 C         137.7514  141.6208  163.8790 C.3     1  UNL1        0.0702
     48 C         137.3828  143.0680  163.7386 C.3     1  UNL1        0.0186
     49 N         137.9469  141.0254  165.2418 N.3     1  UNL1       -0.2974
     50 C         138.3155  139.5782  165.3821 C.3     1  UNL1        0.0702
     51 C         138.5111  138.9827  166.7450 C.3     1  UNL1        0.0186
     52 C         138.4885  138.7263  164.1597 C.3     1  UNL1        0.0882
     53 H         137.0717  141.1568  165.7489 H       1  UNL1        0.1232
     54 C         143.0534  139.4788  159.3521 C.3     1  UNL1        0.0993
     55 N         143.7749  140.3949  160.2955 N.3     1  UNL1       -0.2646
     56 C         144.1220  141.7901  159.8677 C.3     1  UNL1        0.1049
     57 C         144.8435  142.7063  160.8110 C.3     1  UNL1        0.1595
     58 O         145.2180  142.2273  162.1823 O.3     1  UNL1       -0.3508
     59 C         144.8709  140.8322  162.6102 C.3     1  UNL1        0.1595
     60 C         144.1493  139.9160  161.6668 C.3     1  UNL1        0.1049
@<TRIPOS>BOND
     1    22    23    1
     2    23    24   ar
     3    24    25   ar
     4    25    26   ar
     5    26    27    1
     6    26    28   ar
     7    28    18    1
     8    18    19    2
     9    18    20   am
    10    12    20    1
    11    12    13    1
    12    13    14    1
    13    14    15    1
    14    15     8    1
    15     8     9   am
    16     9    10    2
    17     9     1    1
    18     1     2   ar
    19     2     3   ar
    20     3     4    1
    21     3     5   ar
    22     5     6   ar
    23     6     7   ar
    24     7    31    1
    25    31    32    1
    26    32    33   ar
    27    33    34   ar
    28    34    35   ar
    29    35    36   ar
    30    36    38    1
    31    38    39   ar
    32    39    40   ar
    33    40    41   ar
    34    41    44    1
    35    44    45    1
    36    45    46    1
    37    46    47    1
    38    47    48    1
    39    47    49    1
    40    49    50    1
    41    50    51    1
    42    50    52    1
    43    41    42   ar
    44    42    43   ar
    45    43    54    1
    46    54    55    1
    47    55    56    1
    48    56    57    1
    49    57    58    1
    50    58    59    1
    51    59    60    1
    52    36    37   ar
    53    15    16    1
    54    16    17    1
    55    28    29   ar
    56    29    23   ar
    57    17    12    1
    58     7     1   ar
    59    37    32   ar
    60    43    38   ar
    61    60    55    1
    62    52    45    1
    63    27    30    1
    64    20    21    1
    65     8    11    1
    66    49    53    1
@<TRIPOS>MOLECULE
*****
 60 66 0 0 0
SMALL
GASTEIGER

@<TRIPOS>ATOM
      1 C         141.1561  145.2422  157.3180 C.ar    1  UNL1        0.1090
      2 C         140.0573  146.2573  157.2074 C.ar    1  UNL1        0.0405
      3 C         139.6467  146.7744  155.8606 C.ar    1  UNL1        0.1596
      4 F         138.5478  147.7895  155.7500 F       1  UNL1       -0.2025
      5 C         140.3349  146.2765  154.6243 C.ar    1  UNL1        0.1316
      6 N         141.4337  145.2615  154.7349 N.ar    1  UNL1       -0.2073
      7 C         141.8444  144.7443  156.0817 C.ar    1  UNL1        0.2341
      8 N         140.5312  144.4822  159.7225 N.am    1  UNL1       -0.3024
      9 C         141.5667  144.7251  158.6649 C.2     1  UNL1        0.2504
     10 O         143.0128  144.4510  158.9540 O.2     1  UNL1       -0.2700
     11 H         139.5821  144.6621  159.5327 H       1  UNL1        0.1497
     12 C         141.7628  142.9308  163.7631 C.3     1  UNL1        0.0720
     13 C         141.2589  141.9813  162.7169 C.3     1  UNL1        0.0213
     14 C         140.8484  142.4985  161.3700 C.3     1  UNL1        0.0213
     15 C         140.9418  143.9651  161.0694 C.3     1  UNL1        0.0720
     16 C         141.4457  144.9145  162.1156 C.3     1  UNL1        0.0213
     17 C         141.8562  144.3974  163.4624 C.3     1  UNL1        0.0213
     18 C         141.2455  142.5504  166.2806 C.2     1  UNL1        0.2487
     19 O         139.9071  143.2042  166.1043 O.2     1  UNL1       -0.2700
     20 N         142.1734  142.4137  165.1100 N.am    1  UNL1       -0.3024
     21 H         143.0518  141.9845  165.2257 H       1  UNL1        0.1497
     22 C         140.1062  139.9910  170.6568 C.3     1  UNL1        0.0310
     23 C         141.0864  140.7536  169.8156 C.ar    1  UNL1       -0.0215
     24 C         142.4770  140.9990  170.3212 C.ar    1  UNL1       -0.0011
     25 C         143.4572  141.7616  169.4799 C.ar    1  UNL1        0.0364
     26 C         143.0467  142.2787  168.1331 C.ar    1  UNL1        0.1379
     27 O         144.0269  143.0413  167.2918 O.3     1  UNL1       -0.5054
     28 C         141.6561  142.0333  167.6275 C.ar    1  UNL1        0.0866
     29 C         140.6759  141.2707  168.4687 C.ar    1  UNL1        0.0033
     30 H         144.8957  143.1947  167.6077 H       1  UNL1        0.2922
     31 O         142.9432  143.7293  156.1923 O.3     1  UNL1       -0.4360
     32 C         142.6131  142.2663  156.2169 C.ar    1  UNL1        0.1472
     33 C         142.8377  141.4261  154.9948 C.ar    1  UNL1        0.0376
     34 C         142.5076  139.9631  155.0194 C.ar    1  UNL1        0.0031
     35 C         141.9530  139.3402  156.2661 C.ar    1  UNL1        0.0002
     36 C         141.7284  140.1804  157.4882 C.ar    1  UNL1        0.0028
     37 C         142.0585  141.6434  157.4636 C.ar    1  UNL1        0.0375
     38 C         141.1738  139.5576  158.7351 C.ar    1  UNL1       -0.0026
     39 C         139.7256  139.1723  158.8007 C.ar    1  UNL1       -0.0005
     40 C         139.1709  138.5495  160.0474 C.ar    1  UNL1       -0.0029
     41 C         140.0644  138.3119  161.2285 C.ar    1  UNL1       -0.0064
     42 C         141.5126  138.6972  161.1629 C.ar    1  UNL1       -0.0058
     43 C         142.0673  139.3200  159.9162 C.ar    1  UNL1       -0.0064
     44 C         139.5098  137.6891  162.4754 C.3     1  UNL1        0.0992
     45 N         138.8908  138.5530  163.5339 N.3     1  UNL1       -0.2666
     46 C         138.6095  137.9869  164.8943 C.3     1  UNL1        0.0882
     47 C         137.9906  138.8509  165.9528 C.3     1  UNL1        0.0702
     48 C         137.7093  138.2849  167.3131 C.3     1  UNL1        0.0186
     49 N         137.6529  140.2810  165.6510 N.3     1  UNL1       -0.2974
     50 C         137.9342  140.8470  164.2907 C.3     1  UNL1        0.0702
     51 C         137.5966  142.2770  163.9889 C.3     1  UNL1        0.0186
     52 C         138.5532  139.9830  163.2321 C.3     1  UNL1        0.0882
     53 H         138.1684  140.8527  166.3202 H       1  UNL1        0.1232
     54 C         143.5155  139.7053  159.8506 C.3     1  UNL1        0.0993
     55 N         144.1111  140.5689  160.9226 N.3     1  UNL1       -0.2646
     56 C         144.4711  139.9736  162.2516 C.3     1  UNL1        0.1049
     57 C         145.0668  140.8373  163.3236 C.3     1  UNL1        0.1595
     58 O         145.3024  142.2962  163.0668 O.3     1  UNL1       -0.3508
     59 C         144.9424  142.8915  161.7379 C.3     1  UNL1        0.1595
     60 C         144.3468  142.0278  160.6658 C.3     1  UNL1        0.1049
@<TRIPOS>BOND
     1    22    23    1
     2    23    24   ar
     3    24    25   ar
     4    25    26   ar
     5    26    27    1
     6    26    28   ar
     7    28    18    1
     8    18    19    2
     9    18    20   am
    10    12    20    1
    11    12    13    1
    12    13    14    1
    13    14    15    1
    14    15     8    1
    15     8     9   am
    16     9    10    2
    17     9     1    1
    18     1     2   ar
    19     2     3   ar
    20     3     4    1
    21     3     5   ar
    22     5     6   ar
    23     6     7   ar
    24     7    31    1
    25    31    32    1
    26    32    33   ar
    27    33    34   ar
    28    34    35   ar
    29    35    36   ar
    30    36    38    1
    31    38    39   ar
    32    39    40   ar
    33    40    41   ar
    34    41    44    1
    35    44    45    1
    36    45    46    1
    37    46    47    1
    38    47    48    1
    39    47    49    1
    40    49    50    1
    41    50    51    1
    42    50    52    1
    43    41    42   ar
    44    42    43   ar
    45    43    54    1
    46    54    55    1
    47    55    56    1
    48    56    57    1
    49    57    58    1
    50    58    59    1
    51    59    60    1
    52    36    37   ar
    53    15    16    1
    54    16    17    1
    55    28    29   ar
    56    29    23   ar
    57    17    12    1
    58     7     1   ar
    59    37    32   ar
    60    43    38   ar
    61    60    55    1
    62    52    45    1
    63    27    30    1
    64    20    21    1
    65     8    11    1
    66    49    53    1
