@<TRIPOS>MOLECULE
*****
 37 41 0 0 0
SMALL
GASTEIGER

@<TRIPOS>ATOM
      1 C         141.2636  142.0143  167.5385 C.3     1  UNL1        0.0522
      2 C         140.7658  142.8537  168.6776 C.3     1  UNL1        0.0065
      3 C         139.9533  142.2272  169.7717 C.3     1  UNL1        0.0004
      4 C         139.6385  140.7613  169.7268 C.3     1  UNL1        0.0005
      5 C         140.1362  139.9219  168.5876 C.3     1  UNL1        0.0095
      6 C         140.9487  140.5484  167.4935 C.3     1  UNL1        0.0824
      7 C         141.0925  144.3244  162.4130 C.ar    1  UNL1        0.0225
      8 C         139.9357  143.7839  163.2001 C.ar    1  UNL1        0.0018
      9 C         140.1635  143.1986  164.5622 C.ar    1  UNL1        0.0045
     10 C         141.5482  143.1539  165.1373 C.ar    1  UNL1        0.0539
     11 C         142.0761  142.6408  166.4443 C.ar    1  UNL1        0.1006
     12 N         143.5592  142.8643  166.4649 N.ar    1  UNL1       -0.0814
     13 O         143.9479  143.5154  165.1707 O.2     1  UNL1       -0.3537
     14 C         142.7050  143.6944  164.3502 C.ar    1  UNL1        0.1766
     15 C         142.4772  144.2797  162.9880 C.ar    1  UNL1        0.0418
     16 C         141.6624  145.5202  157.3015 C.3     1  UNL1        0.0515
     17 C         141.1267  145.4594  158.7013 C.ar    1  UNL1        0.0535
     18 C         141.7218  144.6858  159.8403 C.ar    1  UNL1        0.0349
     19 C         140.8647  144.9098  161.0508 C.ar    1  UNL1        0.1019
     20 N         139.7399  145.8218  160.6599 N.ar    1  UNL1       -0.1730
     21 N         139.9018  146.1615  159.2078 N.ar    1  UNL1       -0.2798
     22 H         139.3082  146.7432  158.6800 H       1  UNL1        0.1886
     23 C         141.4465  139.7091  166.3543 C.2     1  UNL1        0.2261
     24 O         142.5870  138.7580  166.5657 O.2     1  UNL1       -0.2748
     25 N         140.8038  139.8209  165.0036 N.am    1  UNL1       -0.2814
     26 H         140.0553  140.4452  164.8648 H       1  UNL1        0.1549
     27 C         141.3015  138.9817  163.8643 C.ar    1  UNL1        0.0934
     28 C         142.6900  138.9992  163.2971 C.ar    1  UNL1        0.1115
     29 N         142.7448  138.0058  162.1745 N.ar    1  UNL1       -0.2459
     30 C         143.9437  137.6981  161.3273 C.3     1  UNL1        0.1538
     31 N         141.3901  137.3744  162.0478 N.ar    1  UNL1       -0.1632
     32 C         140.4981  137.9774  163.0921 C.ar    1  UNL1        0.1686
     33 C         139.0559  137.6362  163.3237 C.2     1  UNL1        0.2635
     34 N         138.1180  137.5129  162.1596 N.am    1  UNL1       -0.3240
     35 O         138.5515  137.4183  164.7195 O.2     1  UNL1       -0.2686
     36 H         138.4491  137.6560  161.2435 H       1  UNL1        0.1453
     37 H         137.1715  137.2890  162.3116 H       1  UNL1        0.1453
@<TRIPOS>BOND
     1    16    17    1
     2    17    18   ar
     3    18    19   ar
     4    19     7    1
     5     7     8   ar
     6     8     9   ar
     7     9    10   ar
     8    10    11   ar
     9     1    11    1
    10     1     2    1
    11     2     3    1
    12     3     4    1
    13     4     5    1
    14     5     6    1
    15     6    23    1
    16    23    24    2
    17    23    25   am
    18    25    27    1
    19    27    28   ar
    20    28    29   ar
    21    29    30    1
    22    29    31   ar
    23    31    32   ar
    24    32    33    1
    25    33    34   am
    26    33    35    2
    27    11    12   ar
    28    12    13   ar
    29    13    14   ar
    30    14    15   ar
    31    19    20   ar
    32    20    21   ar
    33    21    17   ar
    34    15     7   ar
    35    14    10   ar
    36     6     1    1
    37    32    27   ar
    38    25    26    1
    39    34    36    1
    40    34    37    1
    41    21    22    1
@<TRIPOS>MOLECULE
*****
 37 41 0 0 0
SMALL
GASTEIGER

@<TRIPOS>ATOM
      1 C         142.3263  141.3671  167.8174 C.3     1  UNL1        0.0522
      2 C         143.2286  141.8711  168.9045 C.3     1  UNL1        0.0065
      3 C         142.7146  142.8619  169.9065 C.3     1  UNL1        0.0004
      4 C         141.2983  143.3487  169.8215 C.3     1  UNL1        0.0005
      5 C         140.3960  142.8447  168.7344 C.3     1  UNL1        0.0095
      6 C         140.9100  141.8539  167.7324 C.3     1  UNL1        0.0824
      7 C         143.5870  140.5172  162.4022 C.ar    1  UNL1        0.0225
      8 C         143.0524  141.7755  163.0192 C.ar    1  UNL1        0.0018
      9 C         142.7699  141.8275  164.4915 C.ar    1  UNL1        0.0045
     10 C         143.0221  140.6212  165.3466 C.ar    1  UNL1        0.0539
     11 C         142.8402  140.3763  166.8153 C.ar    1  UNL1        0.1006
     12 N         143.2625  138.9666  167.1059 N.ar    1  UNL1       -0.0814
     13 O         143.7053  138.3403  165.8168 O.2     1  UNL1       -0.3537
     14 C         143.5567  139.3629  164.7296 C.ar    1  UNL1        0.1766
     15 C         143.8392  139.3109  163.2574 C.ar    1  UNL1        0.0418
     16 C         144.6035  141.9726  157.4293 C.3     1  UNL1        0.0515
     17 C         144.3368  141.1342  158.6441 C.ar    1  UNL1        0.0535
     18 C         144.0882  141.6465  160.0318 C.ar    1  UNL1        0.0349
     19 C         143.8696  140.4652  160.9299 C.ar    1  UNL1        0.1019
     20 N         143.9830  139.2226  160.0973 N.ar    1  UNL1       -0.1730
     21 N         144.2718  139.6361  158.6846 N.ar    1  UNL1       -0.2798
     22 H         144.3967  139.0305  157.9185 H       1  UNL1        0.1886
     23 C         140.0077  141.3498  166.6453 C.2     1  UNL1        0.2261
     24 O         139.1677  140.1283  166.8739 O.2     1  UNL1       -0.2748
     25 N         139.9455  142.0673  165.3295 N.am    1  UNL1       -0.2814
     26 H         140.4968  142.8690  165.1794 H       1  UNL1        0.1549
     27 C         139.0432  141.5632  164.2423 C.ar    1  UNL1        0.0934
     28 C         139.0008  140.1611  163.7110 C.ar    1  UNL1        0.1115
     29 N         137.9564  140.1041  162.6358 N.ar    1  UNL1       -0.2459
     30 C         137.5810  138.8929  161.8347 C.3     1  UNL1        0.1538
     31 N         137.3532  141.4711  162.5027 N.ar    1  UNL1       -0.1632
     32 C         138.0249  142.3728  163.4955 C.ar    1  UNL1        0.1686
     33 C         137.7301  143.8286  163.7047 C.2     1  UNL1        0.2635
     34 N         137.4237  144.7084  162.5291 N.am    1  UNL1       -0.3240
     35 O         137.7416  144.4046  165.0897 O.2     1  UNL1       -0.2686
     36 H         137.4162  144.3303  161.6201 H       1  UNL1        0.1453
     37 H         137.2302  145.6638  162.6665 H       1  UNL1        0.1453
@<TRIPOS>BOND
     1    16    17    1
     2    17    18   ar
     3    18    19   ar
     4    19     7    1
     5     7     8   ar
     6     8     9   ar
     7     9    10   ar
     8    10    11   ar
     9     1    11    1
    10     1     2    1
    11     2     3    1
    12     3     4    1
    13     4     5    1
    14     5     6    1
    15     6    23    1
    16    23    24    2
    17    23    25   am
    18    25    27    1
    19    27    28   ar
    20    28    29   ar
    21    29    30    1
    22    29    31   ar
    23    31    32   ar
    24    32    33    1
    25    33    34   am
    26    33    35    2
    27    11    12   ar
    28    12    13   ar
    29    13    14   ar
    30    14    15   ar
    31    19    20   ar
    32    20    21   ar
    33    21    17   ar
    34    15     7   ar
    35    14    10   ar
    36     6     1    1
    37    32    27   ar
    38    25    26    1
    39    34    36    1
    40    34    37    1
    41    21    22    1
@<TRIPOS>MOLECULE
*****
 37 41 0 0 0
SMALL
GASTEIGER

@<TRIPOS>ATOM
      1 C         143.4549  141.9919  162.6860 C.3     1  UNL1        0.0522
      2 C         144.2023  143.1580  162.1101 C.3     1  UNL1        0.0065
      3 C         144.1079  144.5054  162.7624 C.3     1  UNL1        0.0004
      4 C         143.2661  144.6868  163.9906 C.3     1  UNL1        0.0005
      5 C         142.5187  143.5208  164.5665 C.3     1  UNL1        0.0095
      6 C         142.6131  142.1734  163.9142 C.3     1  UNL1        0.0824
      7 C         141.4851  138.7197  158.5570 C.ar    1  UNL1        0.0225
      8 C         141.0702  140.1263  158.8717 C.ar    1  UNL1        0.0018
      9 C         141.7043  140.8566  160.0183 C.ar    1  UNL1        0.0045
     10 C         142.7533  140.1801  160.8501 C.ar    1  UNL1        0.0539
     11 C         143.5492  140.6445  162.0338 C.ar    1  UNL1        0.1006
     12 N         144.4561  139.5247  162.4506 N.ar    1  UNL1       -0.0814
     13 O         144.2206  138.3684  161.5246 O.2     1  UNL1       -0.3537
     14 C         143.1682  138.7735  160.5355 C.ar    1  UNL1        0.1766
     15 C         142.5341  138.0432  159.3889 C.ar    1  UNL1        0.0418
     16 C         138.1828  137.4005  154.6537 C.3     1  UNL1        0.0515
     17 C         139.3331  137.3830  155.6163 C.ar    1  UNL1        0.0535
     18 C         139.6011  138.3973  156.6883 C.ar    1  UNL1        0.0349
     19 C         140.8510  137.9893  157.4104 C.ar    1  UNL1        0.1019
     20 N         141.3554  136.7229  156.7847 N.ar    1  UNL1       -0.1730
     21 N         140.4173  136.3481  155.6759 N.ar    1  UNL1       -0.2798
     22 H         140.4989  135.5611  155.0900 H       1  UNL1        0.1886
     23 C         141.8657  141.0072  164.4901 C.2     1  UNL1        0.2261
     24 O         142.5902  139.9857  165.3156 O.2     1  UNL1       -0.2748
     25 N         140.3937  140.8627  164.2405 N.am    1  UNL1       -0.2814
     26 H         139.9182  141.5332  163.6987 H       1  UNL1        0.1549
     27 C         139.6463  139.6967  164.8163 C.ar    1  UNL1        0.0934
     28 C         138.7017  139.7429  165.9807 C.ar    1  UNL1        0.1115
     29 N         138.1838  138.3545  166.2130 N.ar    1  UNL1       -0.2459
     30 C         137.2120  137.9428  167.2788 C.3     1  UNL1        0.1538
     31 N         138.8082  137.4500  165.1921 N.ar    1  UNL1       -0.1632
     32 C         139.7121  138.2795  164.3290 C.ar    1  UNL1        0.1686
     33 C         140.5369  137.7796  163.1802 C.2     1  UNL1        0.2635
     34 N         141.9835  137.4411  163.3869 N.am    1  UNL1       -0.3240
     35 O         139.9152  137.6183  161.8246 O.2     1  UNL1       -0.2686
     36 H         142.3916  137.5470  164.2765 H       1  UNL1        0.1453
     37 H         142.5249  137.1130  162.6329 H       1  UNL1        0.1453
@<TRIPOS>BOND
     1    16    17    1
     2    17    18   ar
     3    18    19   ar
     4    19     7    1
     5     7     8   ar
     6     8     9   ar
     7     9    10   ar
     8    10    11   ar
     9     1    11    1
    10     1     2    1
    11     2     3    1
    12     3     4    1
    13     4     5    1
    14     5     6    1
    15     6    23    1
    16    23    24    2
    17    23    25   am
    18    25    27    1
    19    27    28   ar
    20    28    29   ar
    21    29    30    1
    22    29    31   ar
    23    31    32   ar
    24    32    33    1
    25    33    34   am
    26    33    35    2
    27    11    12   ar
    28    12    13   ar
    29    13    14   ar
    30    14    15   ar
    31    19    20   ar
    32    20    21   ar
    33    21    17   ar
    34    15     7   ar
    35    14    10   ar
    36     6     1    1
    37    32    27   ar
    38    25    26    1
    39    34    36    1
    40    34    37    1
    41    21    22    1
@<TRIPOS>MOLECULE
*****
 37 41 0 0 0
SMALL
GASTEIGER

@<TRIPOS>ATOM
      1 C         139.6243  142.8567  160.1371 C.3     1  UNL1        0.0522
      2 C         140.1538  143.9702  159.2829 C.3     1  UNL1        0.0065
      3 C         140.3655  145.3327  159.8734 C.3     1  UNL1        0.0004
      4 C         140.0477  145.5818  161.3180 C.3     1  UNL1        0.0005
      5 C         139.5182  144.4682  162.1722 C.3     1  UNL1        0.0095
      6 C         139.3065  143.1057  161.5818 C.3     1  UNL1        0.0824
      7 C         142.0950  138.5212  157.5420 C.ar    1  UNL1        0.0225
      8 C         142.7456  139.7959  157.9912 C.ar    1  UNL1        0.0018
      9 C         141.9302  140.8542  158.6731 C.ar    1  UNL1        0.0045
     10 C         140.4642  140.6378  158.9057 C.ar    1  UNL1        0.0539
     11 C         139.4125  141.4942  159.5467 C.ar    1  UNL1        0.1006
     12 N         138.1120  140.7486  159.4936 N.ar    1  UNL1       -0.0814
     13 O         138.3599  139.4316  158.8198 O.2     1  UNL1       -0.3537
     14 C         139.8136  139.3631  158.4565 C.ar    1  UNL1        0.1766
     15 C         140.6290  138.3048  157.7746 C.ar    1  UNL1        0.0418
     16 C         143.8761  133.8239  155.9157 C.3     1  UNL1        0.0515
     17 C         143.7291  135.3036  156.1126 C.ar    1  UNL1        0.0535
     18 C         142.6841  135.9825  156.9476 C.ar    1  UNL1        0.0349
     19 C         142.9104  137.4627  156.8600 C.ar    1  UNL1        0.1019
     20 N         144.0952  137.6988  155.9709 N.ar    1  UNL1       -0.1730
     21 N         144.6012  136.3644  155.5089 N.ar    1  UNL1       -0.2798
     22 H         145.3705  136.2116  154.9140 H       1  UNL1        0.1886
     23 C         138.7769  141.9921  162.4359 C.2     1  UNL1        0.2261
     24 O         137.2968  141.8025  162.5884 O.2     1  UNL1       -0.2748
     25 N         139.7276  141.0682  163.1376 N.am    1  UNL1       -0.2814
     26 H         140.6991  141.1926  163.0376 H       1  UNL1        0.1549
     27 C         139.1982  139.9545  163.9918 C.ar    1  UNL1        0.0934
     28 C         138.6074  140.0995  165.3630 C.ar    1  UNL1        0.1115
     29 N         138.2107  138.7350  165.8434 N.ar    1  UNL1       -0.2459
     30 C         137.5793  138.4150  167.1658 C.3     1  UNL1        0.1538
     31 N         138.5563  137.7467  164.7692 N.ar    1  UNL1       -0.1632
     32 C         139.1666  138.5004  163.6248 C.ar    1  UNL1        0.1686
     33 C         139.6588  137.9046  162.3393 C.2     1  UNL1        0.2635
     34 N         138.7534  137.8456  161.1449 N.am    1  UNL1       -0.3240
     35 O         141.0566  137.3679  162.2481 O.2     1  UNL1       -0.2686
     36 H         137.8360  138.1978  161.2047 H       1  UNL1        0.1453
     37 H         139.0764  137.4545  160.3011 H       1  UNL1        0.1453
@<TRIPOS>BOND
     1    16    17    1
     2    17    18   ar
     3    18    19   ar
     4    19     7    1
     5     7     8   ar
     6     8     9   ar
     7     9    10   ar
     8    10    11   ar
     9     1    11    1
    10     1     2    1
    11     2     3    1
    12     3     4    1
    13     4     5    1
    14     5     6    1
    15     6    23    1
    16    23    24    2
    17    23    25   am
    18    25    27    1
    19    27    28   ar
    20    28    29   ar
    21    29    30    1
    22    29    31   ar
    23    31    32   ar
    24    32    33    1
    25    33    34   am
    26    33    35    2
    27    11    12   ar
    28    12    13   ar
    29    13    14   ar
    30    14    15   ar
    31    19    20   ar
    32    20    21   ar
    33    21    17   ar
    34    15     7   ar
    35    14    10   ar
    36     6     1    1
    37    32    27   ar
    38    25    26    1
    39    34    36    1
    40    34    37    1
    41    21    22    1
@<TRIPOS>MOLECULE
*****
 37 41 0 0 0
SMALL
GASTEIGER

@<TRIPOS>ATOM
      1 C         138.9886  138.3122  165.0252 C.3     1  UNL1        0.0522
      2 C         138.1104  137.2546  165.6255 C.3     1  UNL1        0.0065
      3 C         137.4787  137.4772  166.9676 C.3     1  UNL1        0.0004
      4 C         137.7251  138.7574  167.7094 C.3     1  UNL1        0.0005
      5 C         138.6032  139.8150  167.1092 C.3     1  UNL1        0.0095
      6 C         139.2349  139.5924  165.7671 C.3     1  UNL1        0.0824
      7 C         138.6991  139.5091  159.5370 C.ar    1  UNL1        0.0225
      8 C         137.7771  139.9915  160.6174 C.ar    1  UNL1        0.0018
      9 C         138.0030  139.5707  162.0393 C.ar    1  UNL1        0.0045
     10 C         139.1509  138.6675  162.3808 C.ar    1  UNL1        0.0539
     11 C         139.6203  138.0896  163.6831 C.ar    1  UNL1        0.1006
     12 N         140.8324  137.2501  163.4075 N.ar    1  UNL1       -0.0814
     13 O         141.1121  137.3092  161.9349 O.2     1  UNL1       -0.3537
     14 C         140.0729  138.1852  161.3005 C.ar    1  UNL1        0.1766
     15 C         139.8470  138.6060  159.8786 C.ar    1  UNL1        0.0418
     16 C         137.2613  142.3066  155.2958 C.3     1  UNL1        0.0515
     17 C         137.8123  141.2158  156.1656 C.ar    1  UNL1        0.0535
     18 C         137.8335  141.2100  157.6654 C.ar    1  UNL1        0.0349
     19 C         138.4732  139.9299  158.1150 C.ar    1  UNL1        0.1019
     20 N         138.8472  139.1445  156.8931 N.ar    1  UNL1       -0.1730
     21 N         138.4388  139.9392  155.6883 N.ar    1  UNL1       -0.2798
     22 H         138.5606  139.6701  154.7491 H       1  UNL1        0.1886
     23 C         140.1131  140.6500  165.1667 C.2     1  UNL1        0.2261
     24 O         141.5894  140.4163  165.0404 O.2     1  UNL1       -0.2748
     25 N         139.5149  141.9413  164.6927 N.am    1  UNL1       -0.2814
     26 H         138.5459  142.0946  164.7756 H       1  UNL1        0.1549
     27 C         140.3930  142.9989  164.0924 C.ar    1  UNL1        0.0934
     28 C         141.7786  143.3550  164.5433 C.ar    1  UNL1        0.1115
     29 N         142.2816  144.4623  163.6653 N.ar    1  UNL1       -0.2459
     30 C         143.6237  145.1249  163.7636 C.3     1  UNL1        0.1538
     31 N         141.2069  144.7906  162.6718 N.ar    1  UNL1       -0.1632
     32 C         140.0396  143.8863  162.9357 C.ar    1  UNL1        0.1686
     33 C         138.7461  143.8717  162.1763 C.2     1  UNL1        0.2635
     34 N         137.4919  144.3824  162.8213 N.am    1  UNL1       -0.3240
     35 O         138.7069  143.3465  160.7717 O.2     1  UNL1       -0.2686
     36 H         137.5177  144.7270  163.7432 H       1  UNL1        0.1453
     37 H         136.6430  144.3728  162.3229 H       1  UNL1        0.1453
@<TRIPOS>BOND
     1    16    17    1
     2    17    18   ar
     3    18    19   ar
     4    19     7    1
     5     7     8   ar
     6     8     9   ar
     7     9    10   ar
     8    10    11   ar
     9     1    11    1
    10     1     2    1
    11     2     3    1
    12     3     4    1
    13     4     5    1
    14     5     6    1
    15     6    23    1
    16    23    24    2
    17    23    25   am
    18    25    27    1
    19    27    28   ar
    20    28    29   ar
    21    29    30    1
    22    29    31   ar
    23    31    32   ar
    24    32    33    1
    25    33    34   am
    26    33    35    2
    27    11    12   ar
    28    12    13   ar
    29    13    14   ar
    30    14    15   ar
    31    19    20   ar
    32    20    21   ar
    33    21    17   ar
    34    15     7   ar
    35    14    10   ar
    36     6     1    1
    37    32    27   ar
    38    25    26    1
    39    34    36    1
    40    34    37    1
    41    21    22    1
@<TRIPOS>MOLECULE
*****
 37 41 0 0 0
SMALL
GASTEIGER

@<TRIPOS>ATOM
      1 C         139.1226  138.3888  165.3936 C.3     1  UNL1        0.0522
      2 C         137.9792  137.5718  165.9181 C.3     1  UNL1        0.0065
      3 C         137.3968  137.8757  167.2666 C.3     1  UNL1        0.0004
      4 C         137.9579  138.9964  168.0906 C.3     1  UNL1        0.0005
      5 C         139.1013  139.8134  167.5662 C.3     1  UNL1        0.0095
      6 C         139.6837  139.5096  166.2177 C.3     1  UNL1        0.0824
      7 C         138.7414  139.3960  159.8731 C.ar    1  UNL1        0.0225
      8 C         137.8750  139.9642  160.9577 C.ar    1  UNL1        0.0018
      9 C         138.1189  139.5851  162.3883 C.ar    1  UNL1        0.0045
     10 C         139.2292  138.6377  162.7343 C.ar    1  UNL1        0.0539
     11 C         139.7051  138.0850  164.0451 C.ar    1  UNL1        0.1006
     12 N         140.8656  137.1751  163.7706 N.ar    1  UNL1       -0.0814
     13 O         141.1069  137.1656  162.2901 O.2     1  UNL1       -0.3537
     14 C         140.0956  138.0695  161.6497 C.ar    1  UNL1        0.1766
     15 C         139.8517  138.4486  160.2191 C.ar    1  UNL1        0.0418
     16 C         137.1576  142.0194  155.5730 C.3     1  UNL1        0.0515
     17 C         137.7695  140.9810  156.4658 C.ar    1  UNL1        0.0535
     18 C         137.7835  141.0051  157.9656 C.ar    1  UNL1        0.0349
     19 C         138.4975  139.7751  158.4423 C.ar    1  UNL1        0.1019
     20 N         138.9248  138.9907  157.2373 N.ar    1  UNL1       -0.1730
     21 N         138.4749  139.7360  156.0157 N.ar    1  UNL1       -0.2798
     22 H         138.6176  139.4570  155.0824 H       1  UNL1        0.1886
     23 C         140.8271  140.3265  165.6931 C.2     1  UNL1        0.2261
     24 O         142.1961  140.1680  166.2855 O.2     1  UNL1       -0.2748
     25 N         140.6016  141.3020  164.5762 N.am    1  UNL1       -0.2814
     26 H         139.7031  141.4060  164.1874 H       1  UNL1        0.1549
     27 C         141.7450  142.1190  164.0516 C.ar    1  UNL1        0.0934
     28 C         142.0059  143.5654  164.3515 C.ar    1  UNL1        0.1115
     29 N         143.2504  143.9734  163.6203 N.ar    1  UNL1       -0.2459
     30 C         143.8765  145.3362  163.6379 C.3     1  UNL1        0.1538
     31 N         143.7587  142.7791  162.8683 N.ar    1  UNL1       -0.1632
     32 C         142.8284  141.6330  163.1349 C.ar    1  UNL1        0.1686
     33 C         142.9585  140.2448  162.5818 C.2     1  UNL1        0.2635
     34 N         143.1690  139.0848  163.5091 N.am    1  UNL1       -0.3240
     35 O         142.8782  140.0166  161.1014 O.2     1  UNL1       -0.2686
     36 H         143.2217  139.2345  164.4808 H       1  UNL1        0.1453
     37 H         143.2544  138.1736  163.1462 H       1  UNL1        0.1453
@<TRIPOS>BOND
     1    16    17    1
     2    17    18   ar
     3    18    19   ar
     4    19     7    1
     5     7     8   ar
     6     8     9   ar
     7     9    10   ar
     8    10    11   ar
     9     1    11    1
    10     1     2    1
    11     2     3    1
    12     3     4    1
    13     4     5    1
    14     5     6    1
    15     6    23    1
    16    23    24    2
    17    23    25   am
    18    25    27    1
    19    27    28   ar
    20    28    29   ar
    21    29    30    1
    22    29    31   ar
    23    31    32   ar
    24    32    33    1
    25    33    34   am
    26    33    35    2
    27    11    12   ar
    28    12    13   ar
    29    13    14   ar
    30    14    15   ar
    31    19    20   ar
    32    20    21   ar
    33    21    17   ar
    34    15     7   ar
    35    14    10   ar
    36     6     1    1
    37    32    27   ar
    38    25    26    1
    39    34    36    1
    40    34    37    1
    41    21    22    1
@<TRIPOS>MOLECULE
*****
 37 41 0 0 0
SMALL
GASTEIGER

@<TRIPOS>ATOM
      1 C         141.6752  144.6812  157.0762 C.3     1  UNL1        0.0522
      2 C         141.9299  145.1045  155.6598 C.3     1  UNL1        0.0065
      3 C         141.1310  146.2211  155.0557 C.3     1  UNL1        0.0004
      4 C         140.0775  146.9143  155.8678 C.3     1  UNL1        0.0005
      5 C         139.8228  146.4910  157.2841 C.3     1  UNL1        0.0095
      6 C         140.6217  145.3744  157.8882 C.3     1  UNL1        0.0824
      7 C         143.1626  139.2800  156.5755 C.ar    1  UNL1        0.0225
      8 C         142.2635  140.0585  155.6615 C.ar    1  UNL1        0.0018
      9 C         141.9717  141.5018  155.9473 C.ar    1  UNL1        0.0045
     10 C         142.5788  142.1665  157.1471 C.ar    1  UNL1        0.0539
     11 C         142.4741  143.5647  157.6804 C.ar    1  UNL1        0.1006
     12 N         143.3084  143.6501  158.9240 N.ar    1  UNL1       -0.0814
     13 O         143.9288  142.3048  159.1593 O.2     1  UNL1       -0.3537
     14 C         143.4779  141.3879  158.0611 C.ar    1  UNL1        0.1766
     15 C         143.7698  139.9447  157.7753 C.ar    1  UNL1        0.0418
     16 C         142.7824  134.0159  156.4143 C.3     1  UNL1        0.0515
     17 C         143.2797  135.4170  156.2156 C.ar    1  UNL1        0.0535
     18 C         142.6165  136.6669  156.7134 C.ar    1  UNL1        0.0349
     19 C         143.4546  137.8366  156.2897 C.ar    1  UNL1        0.1019
     20 N         144.6358  137.3096  155.5301 N.ar    1  UNL1       -0.1730
     21 N         144.5278  135.8142  155.4843 N.ar    1  UNL1       -0.2798
     22 H         145.1642  135.2011  155.0505 H       1  UNL1        0.1886
     23 C         140.3671  144.9510  159.3046 C.2     1  UNL1        0.2261
     24 O         139.3336  143.9049  159.6005 O.2     1  UNL1       -0.2748
     25 N         141.1460  145.5739  160.4250 N.am    1  UNL1       -0.2814
     26 H         141.8243  146.2605  160.2308 H       1  UNL1        0.1549
     27 C         140.8914  145.1505  161.8414 C.ar    1  UNL1        0.0934
     28 C         139.6321  145.3899  162.6204 C.ar    1  UNL1        0.1115
     29 N         139.8139  144.8008  163.9879 N.ar    1  UNL1       -0.2459
     30 C         138.8017  144.8131  165.0947 C.3     1  UNL1        0.1538
     31 N         141.1855  144.1973  164.0540 N.ar    1  UNL1       -0.1632
     32 C         141.8515  144.4134  162.7274 C.ar    1  UNL1        0.1686
     33 C         143.2347  143.9703  162.3527 C.2     1  UNL1        0.2635
     34 N         143.4742  142.5594  161.9031 N.am    1  UNL1       -0.3240
     35 O         144.3784  144.9380  162.4275 O.2     1  UNL1       -0.2686
     36 H         142.7236  141.9243  161.8540 H       1  UNL1        0.1453
     37 H         144.3821  142.2686  161.6572 H       1  UNL1        0.1453
@<TRIPOS>BOND
     1    16    17    1
     2    17    18   ar
     3    18    19   ar
     4    19     7    1
     5     7     8   ar
     6     8     9   ar
     7     9    10   ar
     8    10    11   ar
     9     1    11    1
    10     1     2    1
    11     2     3    1
    12     3     4    1
    13     4     5    1
    14     5     6    1
    15     6    23    1
    16    23    24    2
    17    23    25   am
    18    25    27    1
    19    27    28   ar
    20    28    29   ar
    21    29    30    1
    22    29    31   ar
    23    31    32   ar
    24    32    33    1
    25    33    34   am
    26    33    35    2
    27    11    12   ar
    28    12    13   ar
    29    13    14   ar
    30    14    15   ar
    31    19    20   ar
    32    20    21   ar
    33    21    17   ar
    34    15     7   ar
    35    14    10   ar
    36     6     1    1
    37    32    27   ar
    38    25    26    1
    39    34    36    1
    40    34    37    1
    41    21    22    1
@<TRIPOS>MOLECULE
*****
 37 41 0 0 0
SMALL
GASTEIGER

@<TRIPOS>ATOM
      1 C         139.5608  138.2865  165.0472 C.3     1  UNL1        0.0522
      2 C         138.7636  137.0652  165.3976 C.3     1  UNL1        0.0065
      3 C         137.7430  137.1253  166.4952 C.3     1  UNL1        0.0004
      4 C         137.5195  138.4066  167.2423 C.3     1  UNL1        0.0005
      5 C         138.3167  139.6279  166.8919 C.3     1  UNL1        0.0095
      6 C         139.3373  139.5679  165.7944 C.3     1  UNL1        0.0824
      7 C         140.3715  138.5246  159.4864 C.ar    1  UNL1        0.0225
      8 C         139.0659  138.6425  160.2156 C.ar    1  UNL1        0.0018
      9 C         139.0326  138.5554  161.7126 C.ar    1  UNL1        0.0045
     10 C         140.3047  138.3505  162.4805 C.ar    1  UNL1        0.0539
     11 C         140.5814  138.2266  163.9496 C.ar    1  UNL1        0.1006
     12 N         142.0580  138.0322  164.1284 N.ar    1  UNL1       -0.0814
     13 O         142.6938  138.0359  162.7698 O.2     1  UNL1       -0.3537
     14 C         141.6102  138.2327  161.7514 C.ar    1  UNL1        0.1766
     15 C         141.6436  138.3197  160.2543 C.ar    1  UNL1        0.0418
     16 C         141.8373  139.7231  154.5573 C.3     1  UNL1        0.0515
     17 C         141.0787  139.1626  155.7236 C.ar    1  UNL1        0.0535
     18 C         141.4315  139.3374  157.1710 C.ar    1  UNL1        0.0349
     19 C         140.4049  138.6117  157.9892 C.ar    1  UNL1        0.1019
     20 N         139.4177  137.9884  157.0476 N.ar    1  UNL1       -0.1730
     21 N         139.8341  138.3288  155.6473 N.ar    1  UNL1       -0.2798
     22 H         139.3717  138.0534  154.8230 H       1  UNL1        0.1886
     23 C         140.1346  140.7892  165.4439 C.2     1  UNL1        0.2261
     24 O         141.2104  141.2739  166.3700 O.2     1  UNL1       -0.2748
     25 N         139.8560  141.5258  164.1672 N.am    1  UNL1       -0.2814
     26 H         139.1499  141.2076  163.5594 H       1  UNL1        0.1549
     27 C         140.6532  142.7471  163.8167 C.ar    1  UNL1        0.0934
     28 C         142.1261  142.7879  163.5356 C.ar    1  UNL1        0.1115
     29 N         142.5007  144.2081  163.2309 N.ar    1  UNL1       -0.2459
     30 C         143.8753  144.7041  162.8928 C.3     1  UNL1        0.1538
     31 N         141.2593  145.0450  163.3236 N.ar    1  UNL1       -0.1632
     32 C         140.1175  144.1421  163.6856 C.ar    1  UNL1        0.1686
     33 C         138.6906  144.5607  163.8821 C.2     1  UNL1        0.2635
     34 N         137.7617  144.6336  162.7066 N.am    1  UNL1       -0.3240
     35 O         138.1925  144.9063  165.2542 O.2     1  UNL1       -0.2686
     36 H         138.0886  144.4068  161.8061 H       1  UNL1        0.1453
     37 H         136.8252  144.9083  162.8355 H       1  UNL1        0.1453
@<TRIPOS>BOND
     1    16    17    1
     2    17    18   ar
     3    18    19   ar
     4    19     7    1
     5     7     8   ar
     6     8     9   ar
     7     9    10   ar
     8    10    11   ar
     9     1    11    1
    10     1     2    1
    11     2     3    1
    12     3     4    1
    13     4     5    1
    14     5     6    1
    15     6    23    1
    16    23    24    2
    17    23    25   am
    18    25    27    1
    19    27    28   ar
    20    28    29   ar
    21    29    30    1
    22    29    31   ar
    23    31    32   ar
    24    32    33    1
    25    33    34   am
    26    33    35    2
    27    11    12   ar
    28    12    13   ar
    29    13    14   ar
    30    14    15   ar
    31    19    20   ar
    32    20    21   ar
    33    21    17   ar
    34    15     7   ar
    35    14    10   ar
    36     6     1    1
    37    32    27   ar
    38    25    26    1
    39    34    36    1
    40    34    37    1
    41    21    22    1
@<TRIPOS>MOLECULE
*****
 37 41 0 0 0
SMALL
GASTEIGER

@<TRIPOS>ATOM
      1 C         139.7348  142.6001  163.2269 C.3     1  UNL1        0.0522
      2 C         138.7449  143.3375  162.3746 C.3     1  UNL1        0.0065
      3 C         137.8909  144.4132  162.9773 C.3     1  UNL1        0.0004
      4 C         138.0268  144.7517  164.4323 C.3     1  UNL1        0.0005
      5 C         139.0167  144.0144  165.2846 C.3     1  UNL1        0.0095
      6 C         139.8707  142.9386  164.6819 C.3     1  UNL1        0.0824
      7 C         143.5160  141.4078  159.2373 C.ar    1  UNL1        0.0225
      8 C         142.8701  142.7353  159.5029 C.ar    1  UNL1        0.0018
      9 C         141.8753  142.8757  160.6167 C.ar    1  UNL1        0.0045
     10 C         141.5264  141.6887  161.4648 C.ar    1  UNL1        0.0539
     11 C         140.5889  141.5243  162.6243 C.ar    1  UNL1        0.1006
     12 N         140.6555  140.0953  163.0751 N.ar    1  UNL1       -0.0814
     13 O         141.6341  139.3765  162.1944 O.2     1  UNL1       -0.3537
     14 C         142.1723  140.3613  161.1992 C.ar    1  UNL1        0.1766
     15 C         143.1671  140.2208  160.0854 C.ar    1  UNL1        0.0418
     16 C         147.2420  142.5131  155.6628 C.3     1  UNL1        0.0515
     17 C         146.2235  141.7754  156.4804 C.ar    1  UNL1        0.0535
     18 C         145.3897  142.3565  157.5835 C.ar    1  UNL1        0.0349
     19 C         144.5109  141.2673  158.1234 C.ar    1  UNL1        0.1019
     20 N         144.8017  140.0130  157.3540 N.ar    1  UNL1       -0.1730
     21 N         145.8601  140.3270  156.3386 N.ar    1  UNL1       -0.2798
     22 H         146.2482  139.6936  155.6924 H       1  UNL1        0.1886
     23 C         140.8606  142.2012  165.5342 C.2     1  UNL1        0.2261
     24 O         142.3188  142.5445  165.4577 O.2     1  UNL1       -0.2748
     25 N         140.3923  141.1204  166.4629 N.am    1  UNL1       -0.2814
     26 H         139.4353  140.8951  166.5132 H       1  UNL1        0.1549
     27 C         141.3822  140.3830  167.3152 C.ar    1  UNL1        0.0934
     28 C         141.5669  140.5474  168.7947 C.ar    1  UNL1        0.1115
     29 N         142.6600  139.6177  169.2315 N.ar    1  UNL1       -0.2459
     30 C         143.1723  139.4555  170.6319 C.3     1  UNL1        0.1538
     31 N         143.1508  138.8786  168.0220 N.ar    1  UNL1       -0.1632
     32 C         142.3611  139.3516  166.8377 C.ar    1  UNL1        0.1686
     33 C         142.5220  138.8765  165.4240 C.2     1  UNL1        0.2635
     34 N         143.2938  139.7029  164.4384 N.am    1  UNL1       -0.3240
     35 O         141.9111  137.5751  164.9960 O.2     1  UNL1       -0.2686
     36 H         143.6948  140.5570  164.7193 H       1  UNL1        0.1453
     37 H         143.3994  139.3911  163.5106 H       1  UNL1        0.1453
@<TRIPOS>BOND
     1    16    17    1
     2    17    18   ar
     3    18    19   ar
     4    19     7    1
     5     7     8   ar
     6     8     9   ar
     7     9    10   ar
     8    10    11   ar
     9     1    11    1
    10     1     2    1
    11     2     3    1
    12     3     4    1
    13     4     5    1
    14     5     6    1
    15     6    23    1
    16    23    24    2
    17    23    25   am
    18    25    27    1
    19    27    28   ar
    20    28    29   ar
    21    29    30    1
    22    29    31   ar
    23    31    32   ar
    24    32    33    1
    25    33    34   am
    26    33    35    2
    27    11    12   ar
    28    12    13   ar
    29    13    14   ar
    30    14    15   ar
    31    19    20   ar
    32    20    21   ar
    33    21    17   ar
    34    15     7   ar
    35    14    10   ar
    36     6     1    1
    37    32    27   ar
    38    25    26    1
    39    34    36    1
    40    34    37    1
    41    21    22    1
