@<TRIPOS>MOLECULE
*****
 34 37 0 0 0
SMALL
GASTEIGER

@<TRIPOS>ATOM
      1 N         140.8617  138.8951  160.7917 N.3     1  UNL1       -0.2688
      2 C         141.5837  138.1001  161.8389 C.3     1  UNL1        0.0741
      3 C         140.9200  137.8137  163.1534 C.3     1  UNL1        0.0370
      4 C         139.5344  138.3223  163.4205 C.3     1  UNL1        0.0760
      5 C         138.8125  139.1174  162.3732 C.3     1  UNL1        0.0370
      6 C         139.4761  139.4038  161.0589 C.3     1  UNL1        0.0741
      7 N         138.8708  138.0359  164.7348 N.pl3   1  UNL1       -0.2899
      8 H         138.2750  137.2575  164.8261 H       1  UNL1        0.1511
      9 C         139.1148  138.9356  165.9100 C.ar    1  UNL1        0.2890
     10 N         139.9382  140.1894  165.9046 N.ar    1  UNL1       -0.1948
     11 C         139.9105  140.7681  167.2882 C.ar    1  UNL1        0.1202
     12 C         140.5421  141.9953  167.8757 C.ar    1  UNL1        0.0235
     13 C         140.3331  142.3263  169.3236 C.ar    1  UNL1        0.0157
     14 C         139.4926  141.4302  170.1842 C.ar    1  UNL1        0.0044
     15 C         138.8610  140.2031  169.5967 C.ar    1  UNL1        0.0392
     16 C         139.0700  139.8720  168.1487 C.ar    1  UNL1        0.1660
     17 O         138.5782  138.7395  167.2969 O.2     1  UNL1       -0.4239
     18 C         140.9647  143.5535  169.9112 C.2     1  UNL1        0.0729
     19 O         142.4397  143.5814  170.1822 O.co2   1  UNL1       -0.5446
     20 O         140.1213  144.7529  170.2276 O.co2   1  UNL1       -0.5446
     21 C         141.5254  139.1815  159.4773 C.3     1  UNL1        0.0993
     22 C         139.8776  137.0987  156.5284 C.ar    1  UNL1        0.1517
     23 C         140.0336  138.0568  157.6719 C.ar    1  UNL1        0.0351
     24 C         141.3693  138.2234  158.3338 C.ar    1  UNL1       -0.0001
     25 C         142.5490  137.4320  157.8523 C.ar    1  UNL1        0.0351
     26 C         142.3930  136.4738  156.7087 C.ar    1  UNL1        0.1517
     27 C         141.0573  136.3071  156.0468 C.ar    1  UNL1        0.1253
     28 CL        140.9012  135.3490  154.9033 Cl      1  UNL1       -0.0759
     29 O         138.5419  136.9320  155.8665 O.3     1  UNL1       -0.4745
     30 C         136.8113  137.9423  154.2129 C.3     1  UNL1        0.0512
     31 C         138.2356  137.6726  154.5986 C.3     1  UNL1        0.2056
     32 O         143.5726  135.6823  156.2272 O.3     1  UNL1       -0.4745
     33 C         143.8812  134.3482  156.8396 C.3     1  UNL1        0.2056
     34 C         143.8862  133.1145  155.9864 C.3     1  UNL1        0.0512
@<TRIPOS>UNITY_ATOM_ATTR
19 1
charge -1
@<TRIPOS>BOND
     1    30    31    1
     2    31    29    1
     3    29    22    1
     4    22    23   ar
     5    23    24   ar
     6    24    21    1
     7    21     1    1
     8     1     2    1
     9     2     3    1
    10     3     4    1
    11     4     7    1
    12     7     9    1
    13     9    10   ar
    14    10    11   ar
    15    11    12   ar
    16    12    13   ar
    17    13    18    1
    18    18    19   ar
    19    18    20   ar
    20    13    14   ar
    21    14    15   ar
    22    15    16   ar
    23    16    17   ar
    24     4     5    1
    25     5     6    1
    26    24    25   ar
    27    25    26   ar
    28    26    32    1
    29    32    33    1
    30    33    34    1
    31    26    27   ar
    32    27    28    1
    33    27    22   ar
    34     6     1    1
    35    17     9   ar
    36    16    11   ar
    37     7     8    1
@<TRIPOS>MOLECULE
*****
 34 37 0 0 0
SMALL
GASTEIGER

@<TRIPOS>ATOM
      1 N         140.7480  138.8913  160.6447 N.3     1  UNL1       -0.2688
      2 C         141.5464  138.1067  161.6431 C.3     1  UNL1        0.0741
      3 C         140.9621  137.7896  162.9878 C.3     1  UNL1        0.0370
      4 C         139.5796  138.2571  163.3340 C.3     1  UNL1        0.0760
      5 C         138.7812  139.0417  162.3355 C.3     1  UNL1        0.0370
      6 C         139.3654  139.3588  160.9909 C.3     1  UNL1        0.0741
      7 N         138.9953  137.9400  164.6787 N.pl3   1  UNL1       -0.2899
      8 H         138.4333  137.1401  164.7949 H       1  UNL1        0.1511
      9 C         139.2674  138.8416  165.8462 C.ar    1  UNL1        0.2890
     10 N         140.2357  139.9870  165.8687 N.ar    1  UNL1       -0.1948
     11 C         140.1857  140.6094  167.2326 C.ar    1  UNL1        0.1202
     12 C         140.9209  141.7706  167.8335 C.ar    1  UNL1        0.0235
     13 C         140.6570  142.1710  169.2547 C.ar    1  UNL1        0.0157
     14 C         139.6579  141.4103  170.0751 C.ar    1  UNL1        0.0044
     15 C         138.9227  140.2491  169.4742 C.ar    1  UNL1        0.0392
     16 C         139.1866  139.8487  168.0530 C.ar    1  UNL1        0.1660
     17 O         138.6191  138.7561  167.1961 O.2     1  UNL1       -0.4239
     18 C         141.3922  143.3323  169.8557 C.2     1  UNL1        0.0729
     19 O         140.6339  144.5384  170.3249 O.co2   1  UNL1       -0.5446
     20 O         142.8858  143.2873  169.9873 O.co2   1  UNL1       -0.5446
     21 C         141.3322  139.2084  159.2999 C.3     1  UNL1        0.0993
     22 C         142.2620  136.4117  156.6422 C.ar    1  UNL1        0.1517
     23 C         142.3885  137.3969  157.7662 C.ar    1  UNL1        0.0351
     24 C         141.2057  138.2232  158.1760 C.ar    1  UNL1       -0.0001
     25 C         139.8962  138.0644  157.4619 C.ar    1  UNL1        0.0351
     26 C         139.7696  137.0791  156.3378 C.ar    1  UNL1        0.1517
     27 C         140.9524  136.2528  155.9280 C.ar    1  UNL1        0.1253
     28 CL        140.8259  135.2676  154.8040 Cl      1  UNL1       -0.0759
     29 O         143.4449  135.5854  156.2324 O.3     1  UNL1       -0.4745
     30 C         142.9691  133.0970  156.8080 C.3     1  UNL1        0.0512
     31 C         143.7890  134.3393  156.9931 C.3     1  UNL1        0.2056
     32 O         138.4601  136.9203  155.6237 O.3     1  UNL1       -0.4745
     33 C         138.0677  137.8931  154.5516 C.3     1  UNL1        0.2056
     34 C         139.1106  138.4580  153.6331 C.3     1  UNL1        0.0512
@<TRIPOS>UNITY_ATOM_ATTR
19 1
charge -1
@<TRIPOS>BOND
     1    30    31    1
     2    31    29    1
     3    29    22    1
     4    22    23   ar
     5    23    24   ar
     6    24    21    1
     7    21     1    1
     8     1     2    1
     9     2     3    1
    10     3     4    1
    11     4     7    1
    12     7     9    1
    13     9    10   ar
    14    10    11   ar
    15    11    12   ar
    16    12    13   ar
    17    13    18    1
    18    18    19   ar
    19    18    20   ar
    20    13    14   ar
    21    14    15   ar
    22    15    16   ar
    23    16    17   ar
    24     4     5    1
    25     5     6    1
    26    24    25   ar
    27    25    26   ar
    28    26    32    1
    29    32    33    1
    30    33    34    1
    31    26    27   ar
    32    27    28    1
    33    27    22   ar
    34     6     1    1
    35    17     9   ar
    36    16    11   ar
    37     7     8    1
@<TRIPOS>MOLECULE
*****
 34 37 0 0 0
SMALL
GASTEIGER

@<TRIPOS>ATOM
      1 N         141.1429  138.4507  159.9061 N.3     1  UNL1       -0.2688
      2 C         139.6603  138.6658  159.9804 C.3     1  UNL1        0.0741
      3 C         138.9464  138.5218  161.2918 C.3     1  UNL1        0.0370
      4 C         139.7151  138.1627  162.5288 C.3     1  UNL1        0.0760
      5 C         141.1978  137.9476  162.4544 C.3     1  UNL1        0.0370
      6 C         141.9116  138.0915  161.1430 C.3     1  UNL1        0.0741
      7 N         139.0012  138.0187  163.8401 N.pl3   1  UNL1       -0.2899
      8 H         138.3314  137.3073  163.9604 H       1  UNL1        0.1511
      9 C         139.3078  138.9586  164.9681 C.ar    1  UNL1        0.2890
     10 N         139.0734  138.6929  166.4257 N.ar    1  UNL1       -0.1948
     11 C         139.5234  139.8994  167.1951 C.ar    1  UNL1        0.1202
     12 C         139.5326  140.2077  168.6630 C.ar    1  UNL1        0.0235
     13 C         140.0545  141.5274  169.1488 C.ar    1  UNL1        0.0157
     14 C         140.5671  142.5387  168.1668 C.ar    1  UNL1        0.0044
     15 C         140.5579  142.2304  166.6989 C.ar    1  UNL1        0.0392
     16 C         140.0360  140.9107  166.2130 C.ar    1  UNL1        0.1660
     17 O         139.9028  140.3293  164.8367 O.2     1  UNL1       -0.4239
     18 C         140.0637  141.8357  170.6168 C.2     1  UNL1        0.0729
     19 O         139.5336  143.1492  171.1106 O.co2   1  UNL1       -0.5446
     20 O         140.6031  140.8307  171.5909 O.co2   1  UNL1       -0.5446
     21 C         141.8569  138.5946  158.5947 C.3     1  UNL1        0.0993
     22 C         140.4852  136.6142  155.4410 C.ar    1  UNL1        0.1517
     23 C         140.6356  137.6691  156.4966 C.ar    1  UNL1        0.0351
     24 C         141.7064  137.5397  157.5390 C.ar    1  UNL1       -0.0001
     25 C         142.6268  136.3554  157.5258 C.ar    1  UNL1        0.0351
     26 C         142.4763  135.3003  156.4702 C.ar    1  UNL1        0.1517
     27 C         141.4056  135.4298  155.4277 C.ar    1  UNL1        0.1253
     28 CL        141.2551  134.3748  154.3721 Cl      1  UNL1       -0.0759
     29 O         139.4144  136.7436  154.3985 O.3     1  UNL1       -0.4745
     30 C         137.0343  137.5427  153.7305 C.3     1  UNL1        0.0512
     31 C         138.2059  137.5909  154.6659 C.3     1  UNL1        0.2056
     32 O         143.3967  134.1160  156.4569 O.3     1  UNL1       -0.4745
     33 C         144.0833  133.6856  157.7192 C.3     1  UNL1        0.2056
     34 C         144.8031  132.3706  157.7706 C.3     1  UNL1        0.0512
@<TRIPOS>UNITY_ATOM_ATTR
19 1
charge -1
@<TRIPOS>BOND
     1    30    31    1
     2    31    29    1
     3    29    22    1
     4    22    23   ar
     5    23    24   ar
     6    24    21    1
     7    21     1    1
     8     1     2    1
     9     2     3    1
    10     3     4    1
    11     4     7    1
    12     7     9    1
    13     9    10   ar
    14    10    11   ar
    15    11    12   ar
    16    12    13   ar
    17    13    18    1
    18    18    19   ar
    19    18    20   ar
    20    13    14   ar
    21    14    15   ar
    22    15    16   ar
    23    16    17   ar
    24     4     5    1
    25     5     6    1
    26    24    25   ar
    27    25    26   ar
    28    26    32    1
    29    32    33    1
    30    33    34    1
    31    26    27   ar
    32    27    28    1
    33    27    22   ar
    34     6     1    1
    35    17     9   ar
    36    16    11   ar
    37     7     8    1
@<TRIPOS>MOLECULE
*****
 34 37 0 0 0
SMALL
GASTEIGER

@<TRIPOS>ATOM
      1 N         139.3784  139.0154  159.9547 N.3     1  UNL1       -0.2688
      2 C         138.1141  139.4238  160.6508 C.3     1  UNL1        0.0741
      3 C         137.9098  139.0816  162.0969 C.3     1  UNL1        0.0370
      4 C         138.9701  138.3310  162.8470 C.3     1  UNL1        0.0760
      5 C         140.2345  137.9226  162.1508 C.3     1  UNL1        0.0370
      6 C         140.4387  138.2648  160.7048 C.3     1  UNL1        0.0741
      7 N         138.7659  137.9888  164.2930 N.pl3   1  UNL1       -0.2899
      8 H         138.3947  137.1121  164.5438 H       1  UNL1        0.1511
      9 C         139.1272  138.9824  165.3571 C.ar    1  UNL1        0.2890
     10 N         138.8395  138.8481  166.8231 N.ar    1  UNL1       -0.1948
     11 C         139.3741  140.0674  167.5141 C.ar    1  UNL1        0.1202
     12 C         139.3779  140.4839  168.9551 C.ar    1  UNL1        0.0235
     13 C         140.0000  141.7882  169.3571 C.ar    1  UNL1        0.0157
     14 C         140.6182  142.6761  168.3181 C.ar    1  UNL1        0.0044
     15 C         140.6144  142.2596  166.8772 C.ar    1  UNL1        0.0392
     16 C         139.9924  140.9553  166.4751 C.ar    1  UNL1        0.1660
     17 O         139.8398  140.2847  165.1421 O.2     1  UNL1       -0.4239
     18 C         140.0038  142.2048  170.7982 C.2     1  UNL1        0.0729
     19 O         139.2241  143.4103  171.2324 O.co2   1  UNL1       -0.5446
     20 O         140.7873  141.4157  171.8049 O.co2   1  UNL1       -0.5446
     21 C         139.5827  139.3576  158.5086 C.3     1  UNL1        0.0993
     22 C         141.7054  136.8933  156.2347 C.ar    1  UNL1        0.1517
     23 C         140.5532  137.4861  156.9902 C.ar    1  UNL1        0.0351
     24 C         140.7349  138.7648  157.7531 C.ar    1  UNL1       -0.0001
     25 C         142.0689  139.4506  157.7605 C.ar    1  UNL1        0.0351
     26 C         143.2212  138.8578  157.0050 C.ar    1  UNL1        0.1517
     27 C         143.0395  137.5791  156.2420 C.ar    1  UNL1        0.1253
     28 CL        144.1918  136.9863  155.4865 Cl      1  UNL1       -0.0759
     29 O         141.5237  135.6146  155.4717 O.3     1  UNL1       -0.4745
     30 C         142.8103  133.3941  155.0667 C.3     1  UNL1        0.0512
     31 C         142.1086  134.3376  155.9981 C.3     1  UNL1        0.2056
     32 O         144.5552  139.5436  157.0124 O.3     1  UNL1       -0.4745
     33 C         144.7619  140.7905  156.2047 C.3     1  UNL1        0.2056
     34 C         145.7496  140.7977  155.0757 C.3     1  UNL1        0.0512
@<TRIPOS>UNITY_ATOM_ATTR
19 1
charge -1
@<TRIPOS>BOND
     1    30    31    1
     2    31    29    1
     3    29    22    1
     4    22    23   ar
     5    23    24   ar
     6    24    21    1
     7    21     1    1
     8     1     2    1
     9     2     3    1
    10     3     4    1
    11     4     7    1
    12     7     9    1
    13     9    10   ar
    14    10    11   ar
    15    11    12   ar
    16    12    13   ar
    17    13    18    1
    18    18    19   ar
    19    18    20   ar
    20    13    14   ar
    21    14    15   ar
    22    15    16   ar
    23    16    17   ar
    24     4     5    1
    25     5     6    1
    26    24    25   ar
    27    25    26   ar
    28    26    32    1
    29    32    33    1
    30    33    34    1
    31    26    27   ar
    32    27    28    1
    33    27    22   ar
    34     6     1    1
    35    17     9   ar
    36    16    11   ar
    37     7     8    1
@<TRIPOS>MOLECULE
*****
 34 37 0 0 0
SMALL
GASTEIGER

@<TRIPOS>ATOM
      1 N         139.3416  139.0114  160.1671 N.3     1  UNL1       -0.2688
      2 C         138.0886  139.4066  160.8909 C.3     1  UNL1        0.0741
      3 C         137.9354  139.0952  162.3502 C.3     1  UNL1        0.0370
      4 C         139.0353  138.3886  163.0858 C.3     1  UNL1        0.0760
      5 C         140.2883  137.9934  162.3620 C.3     1  UNL1        0.0370
      6 C         140.4414  138.3048  160.9027 C.3     1  UNL1        0.0741
      7 N         138.8821  138.0772  164.5450 N.pl3   1  UNL1       -0.2899
      8 H         138.5510  137.1942  164.8278 H       1  UNL1        0.1511
      9 C         139.2336  139.1110  165.5735 C.ar    1  UNL1        0.2890
     10 N         138.9883  139.0053  167.0495 N.ar    1  UNL1       -0.1948
     11 C         139.4951  140.2611  167.6947 C.ar    1  UNL1        0.1202
     12 C         139.5201  140.7155  169.1240 C.ar    1  UNL1        0.0235
     13 C         140.1037  142.0517  169.4760 C.ar    1  UNL1        0.0157
     14 C         140.6622  142.9335  168.3987 C.ar    1  UNL1        0.0044
     15 C         140.6372  142.4791  166.9694 C.ar    1  UNL1        0.0392
     16 C         140.0536  141.1429  166.6175 C.ar    1  UNL1        0.1660
     17 O         139.8920  140.4321  165.3065 O.2     1  UNL1       -0.4239
     18 C         140.1288  142.5062  170.9053 C.2     1  UNL1        0.0729
     19 O         139.0420  143.3982  171.4278 O.co2   1  UNL1       -0.5446
     20 O         141.2408  142.0686  171.8120 O.co2   1  UNL1       -0.5446
     21 C         139.4948  139.3228  158.7078 C.3     1  UNL1        0.0993
     22 C         143.1088  138.8081  157.1510 C.ar    1  UNL1        0.1517
     23 C         141.9722  139.4017  157.9292 C.ar    1  UNL1        0.0351
     24 C         140.6314  138.7292  157.9295 C.ar    1  UNL1       -0.0001
     25 C         140.4272  137.4631  157.1515 C.ar    1  UNL1        0.0351
     26 C         141.5638  136.8695  156.3732 C.ar    1  UNL1        0.1517
     27 C         142.9046  137.5420  156.3729 C.ar    1  UNL1        0.1253
     28 CL        144.0412  136.9484  155.5947 Cl      1  UNL1       -0.0759
     29 O         144.4496  139.4806  157.1507 O.3     1  UNL1       -0.4745
     30 C         145.7980  140.5738  155.2176 C.3     1  UNL1        0.0512
     31 C         144.7039  140.6460  156.2413 C.3     1  UNL1        0.2056
     32 O         141.3596  135.6034  155.5952 O.3     1  UNL1       -0.4745
     33 C         142.0383  134.3384  156.0299 C.3     1  UNL1        0.2056
     34 C         141.9733  133.1162  155.1625 C.3     1  UNL1        0.0512
@<TRIPOS>UNITY_ATOM_ATTR
19 1
charge -1
@<TRIPOS>BOND
     1    30    31    1
     2    31    29    1
     3    29    22    1
     4    22    23   ar
     5    23    24   ar
     6    24    21    1
     7    21     1    1
     8     1     2    1
     9     2     3    1
    10     3     4    1
    11     4     7    1
    12     7     9    1
    13     9    10   ar
    14    10    11   ar
    15    11    12   ar
    16    12    13   ar
    17    13    18    1
    18    18    19   ar
    19    18    20   ar
    20    13    14   ar
    21    14    15   ar
    22    15    16   ar
    23    16    17   ar
    24     4     5    1
    25     5     6    1
    26    24    25   ar
    27    25    26   ar
    28    26    32    1
    29    32    33    1
    30    33    34    1
    31    26    27   ar
    32    27    28    1
    33    27    22   ar
    34     6     1    1
    35    17     9   ar
    36    16    11   ar
    37     7     8    1
@<TRIPOS>MOLECULE
*****
 34 37 0 0 0
SMALL
GASTEIGER

@<TRIPOS>ATOM
      1 N         142.2091  138.9847  160.1479 N.3     1  UNL1       -0.2688
      2 C         141.0844  138.3016  160.8678 C.3     1  UNL1        0.0741
      3 C         141.2207  137.9637  162.3229 C.3     1  UNL1        0.0370
      4 C         142.4817  138.3091  163.0581 C.3     1  UNL1        0.0760
      5 C         143.6065  138.9923  162.3382 C.3     1  UNL1        0.0370
      6 C         143.4702  139.3301  160.8831 C.3     1  UNL1        0.0741
      7 N         142.6180  137.9713  164.5132 N.pl3   1  UNL1       -0.2899
      8 H         142.8838  137.0631  164.7849 H       1  UNL1        0.1511
      9 C         142.3493  139.0171  165.5544 C.ar    1  UNL1        0.2890
     10 N         142.9908  139.0992  166.9078 N.ar    1  UNL1       -0.1948
     11 C         142.4299  140.2973  167.6148 C.ar    1  UNL1        0.1202
     12 C         142.6913  140.8738  168.9746 C.ar    1  UNL1        0.0235
     13 C         141.9646  142.1088  169.4180 C.ar    1  UNL1        0.0157
     14 C         140.9764  142.7672  168.5016 C.ar    1  UNL1        0.0044
     15 C         140.7149  142.1907  167.1417 C.ar    1  UNL1        0.0392
     16 C         141.4417  140.9558  166.6983 C.ar    1  UNL1        0.1660
     17 O         141.3919  140.1646  165.4249 O.2     1  UNL1       -0.4239
     18 C         142.2260  142.6853  170.7780 C.2     1  UNL1        0.0729
     19 O         141.5150  142.1311  171.9769 O.co2   1  UNL1       -0.5446
     20 O         143.1983  143.8161  170.9389 O.co2   1  UNL1       -0.5446
     21 C         142.0729  139.3226  158.6928 C.3     1  UNL1        0.0993
     22 C         142.4335  136.2252  156.2381 C.ar    1  UNL1        0.1517
     23 C         142.7813  137.2974  157.2277 C.ar    1  UNL1        0.0351
     24 C         141.7250  138.2503  157.7033 C.ar    1  UNL1       -0.0001
     25 C         140.3209  138.1310  157.1894 C.ar    1  UNL1        0.0351
     26 C         139.9730  137.0587  156.1998 C.ar    1  UNL1        0.1517
     27 C         141.0293  136.1058  155.7242 C.ar    1  UNL1        0.1253
     28 CL        140.6815  135.0335  154.7346 Cl      1  UNL1       -0.0759
     29 O         143.4898  135.2723  155.7625 O.3     1  UNL1       -0.4745
     30 C         142.9373  132.9411  156.7678 C.3     1  UNL1        0.0512
     31 C         143.8785  134.0986  156.6119 C.3     1  UNL1        0.2056
     32 O         138.5689  136.9393  155.6859 O.3     1  UNL1       -0.4745
     33 C         138.1024  137.8221  154.5665 C.3     1  UNL1        0.2056
     34 C         136.6934  137.7139  154.0633 C.3     1  UNL1        0.0512
@<TRIPOS>UNITY_ATOM_ATTR
19 1
charge -1
@<TRIPOS>BOND
     1    30    31    1
     2    31    29    1
     3    29    22    1
     4    22    23   ar
     5    23    24   ar
     6    24    21    1
     7    21     1    1
     8     1     2    1
     9     2     3    1
    10     3     4    1
    11     4     7    1
    12     7     9    1
    13     9    10   ar
    14    10    11   ar
    15    11    12   ar
    16    12    13   ar
    17    13    18    1
    18    18    19   ar
    19    18    20   ar
    20    13    14   ar
    21    14    15   ar
    22    15    16   ar
    23    16    17   ar
    24     4     5    1
    25     5     6    1
    26    24    25   ar
    27    25    26   ar
    28    26    32    1
    29    32    33    1
    30    33    34    1
    31    26    27   ar
    32    27    28    1
    33    27    22   ar
    34     6     1    1
    35    17     9   ar
    36    16    11   ar
    37     7     8    1
@<TRIPOS>MOLECULE
*****
 34 37 0 0 0
SMALL
GASTEIGER

@<TRIPOS>ATOM
      1 N         138.7278  140.2833  160.5734 N.3     1  UNL1       -0.2688
      2 C         139.6753  139.1497  160.8326 C.3     1  UNL1        0.0741
      3 C         139.7323  138.5154  162.1907 C.3     1  UNL1        0.0370
      4 C         138.8417  139.0147  163.2896 C.3     1  UNL1        0.0760
      5 C         137.8941  140.1483  163.0304 C.3     1  UNL1        0.0370
      6 C         137.8372  140.7826  161.6723 C.3     1  UNL1        0.0741
      7 N         138.8986  138.3804  164.6477 N.pl3   1  UNL1       -0.2899
      8 H         138.7640  137.4099  164.7437 H       1  UNL1        0.1511
      9 C         139.1606  139.2247  165.8594 C.ar    1  UNL1        0.2890
     10 N         139.9132  140.5220  165.8842 N.ar    1  UNL1       -0.1948
     11 C         139.9338  141.0191  167.2993 C.ar    1  UNL1        0.1202
     12 C         140.5306  142.2454  167.9237 C.ar    1  UNL1        0.0235
     13 C         140.3876  142.4816  169.3980 C.ar    1  UNL1        0.0157
     14 C         139.6477  141.4915  170.2479 C.ar    1  UNL1        0.0044
     15 C         139.0509  140.2652  169.6235 C.ar    1  UNL1        0.0392
     16 C         139.1939  140.0291  168.1491 C.ar    1  UNL1        0.1660
     17 O         138.7161  138.9201  167.2593 O.2     1  UNL1       -0.4239
     18 C         140.9845  143.7079  170.0226 C.2     1  UNL1        0.0729
     19 O         142.4383  143.7301  170.3910 O.co2   1  UNL1       -0.5446
     20 O         140.1274  144.9120  170.2786 O.co2   1  UNL1       -0.5446
     21 C         138.6708  140.9177  159.2153 C.3     1  UNL1        0.0993
     22 C         140.1489  144.0765  157.3213 C.ar    1  UNL1        0.1517
     23 C         139.3337  142.8513  157.6116 C.ar    1  UNL1        0.0351
     24 C         139.4860  142.1429  158.9250 C.ar    1  UNL1       -0.0001
     25 C         140.4536  142.6596  159.9481 C.ar    1  UNL1        0.0351
     26 C         141.2689  143.8849  159.6578 C.ar    1  UNL1        0.1517
     27 C         141.1165  144.5933  158.3445 C.ar    1  UNL1        0.1253
     28 CL        141.9317  145.8185  158.0542 Cl      1  UNL1       -0.0759
     29 O         139.9966  144.7849  156.0080 O.3     1  UNL1       -0.4745
     30 C         139.4413  147.1127  154.9966 C.3     1  UNL1        0.0512
     31 C         139.0805  145.9673  155.8954 C.3     1  UNL1        0.2056
     32 O         142.2364  144.4017  160.6809 O.3     1  UNL1       -0.4745
     33 C         142.0216  144.1021  162.1349 C.3     1  UNL1        0.2056
     34 C         141.8650  145.2252  163.1169 C.3     1  UNL1        0.0512
@<TRIPOS>UNITY_ATOM_ATTR
19 1
charge -1
@<TRIPOS>BOND
     1    30    31    1
     2    31    29    1
     3    29    22    1
     4    22    23   ar
     5    23    24   ar
     6    24    21    1
     7    21     1    1
     8     1     2    1
     9     2     3    1
    10     3     4    1
    11     4     7    1
    12     7     9    1
    13     9    10   ar
    14    10    11   ar
    15    11    12   ar
    16    12    13   ar
    17    13    18    1
    18    18    19   ar
    19    18    20   ar
    20    13    14   ar
    21    14    15   ar
    22    15    16   ar
    23    16    17   ar
    24     4     5    1
    25     5     6    1
    26    24    25   ar
    27    25    26   ar
    28    26    32    1
    29    32    33    1
    30    33    34    1
    31    26    27   ar
    32    27    28    1
    33    27    22   ar
    34     6     1    1
    35    17     9   ar
    36    16    11   ar
    37     7     8    1
@<TRIPOS>MOLECULE
*****
 34 37 0 0 0
SMALL
GASTEIGER

@<TRIPOS>ATOM
      1 N         139.8476  138.9969  160.8475 N.3     1  UNL1       -0.2688
      2 C         140.6260  137.9831  161.6325 C.3     1  UNL1        0.0741
      3 C         140.2086  137.6358  163.0309 C.3     1  UNL1        0.0370
      4 C         139.0129  138.3024  163.6441 C.3     1  UNL1        0.0760
      5 C         138.2346  139.3162  162.8590 C.3     1  UNL1        0.0370
      6 C         138.6519  139.6635  161.4607 C.3     1  UNL1        0.0741
      7 N         138.5956  137.9551  165.0424 N.pl3   1  UNL1       -0.2899
      8 H         138.1146  137.1143  165.2180 H       1  UNL1        0.1511
      9 C         138.9111  138.8890  166.1730 C.ar    1  UNL1        0.2890
     10 N         139.7931  140.0999  166.0965 N.ar    1  UNL1       -0.1948
     11 C         139.8271  140.7352  167.4549 C.ar    1  UNL1        0.1202
     12 C         140.5308  141.9530  167.9760 C.ar    1  UNL1        0.0235
     13 C         140.3736  142.3526  169.4132 C.ar    1  UNL1        0.0157
     14 C         139.5126  141.5344  170.3293 C.ar    1  UNL1        0.0044
     15 C         138.8089  140.3165  169.8082 C.ar    1  UNL1        0.0392
     16 C         138.9661  139.9169  168.3710 C.ar    1  UNL1        0.1660
     17 O         138.4000  138.7759  167.5787 O.2     1  UNL1       -0.4239
     18 C         141.0773  143.5705  169.9344 C.2     1  UNL1        0.0729
     19 O         142.5670  143.5585  170.1094 O.co2   1  UNL1       -0.5446
     20 O         140.2913  144.8003  170.2805 O.co2   1  UNL1       -0.5446
     21 C         140.2649  139.3442  159.4491 C.3     1  UNL1        0.0993
     22 C         143.1988  141.2586  157.5844 C.ar    1  UNL1        0.1517
     23 C         141.9629  140.4411  157.8170 C.ar    1  UNL1        0.0351
     24 C         141.5009  140.1617  159.2165 C.ar    1  UNL1       -0.0001
     25 C         142.2748  140.6998  160.3833 C.ar    1  UNL1        0.0351
     26 C         143.5107  141.5174  160.1507 C.ar    1  UNL1        0.1517
     27 C         143.9728  141.7967  158.7512 C.ar    1  UNL1        0.1253
     28 CL        145.2087  142.6142  158.5186 Cl      1  UNL1       -0.0759
     29 O         143.6608  141.5380  156.1849 O.3     1  UNL1       -0.4745
     30 C         146.0211  140.6659  155.5378 C.3     1  UNL1        0.0512
     31 C         144.5275  140.5450  155.4689 C.3     1  UNL1        0.2056
     32 O         144.2846  142.0555  161.3175 O.3     1  UNL1       -0.4745
     33 C         144.7098  141.1359  162.4236 C.3     1  UNL1        0.2056
     34 C         145.7037  141.6019  163.4460 C.3     1  UNL1        0.0512
@<TRIPOS>UNITY_ATOM_ATTR
19 1
charge -1
@<TRIPOS>BOND
     1    30    31    1
     2    31    29    1
     3    29    22    1
     4    22    23   ar
     5    23    24   ar
     6    24    21    1
     7    21     1    1
     8     1     2    1
     9     2     3    1
    10     3     4    1
    11     4     7    1
    12     7     9    1
    13     9    10   ar
    14    10    11   ar
    15    11    12   ar
    16    12    13   ar
    17    13    18    1
    18    18    19   ar
    19    18    20   ar
    20    13    14   ar
    21    14    15   ar
    22    15    16   ar
    23    16    17   ar
    24     4     5    1
    25     5     6    1
    26    24    25   ar
    27    25    26   ar
    28    26    32    1
    29    32    33    1
    30    33    34    1
    31    26    27   ar
    32    27    28    1
    33    27    22   ar
    34     6     1    1
    35    17     9   ar
    36    16    11   ar
    37     7     8    1
@<TRIPOS>MOLECULE
*****
 34 37 0 0 0
SMALL
GASTEIGER

@<TRIPOS>ATOM
      1 N         138.5859  140.2633  160.2759 N.3     1  UNL1       -0.2688
      2 C         139.4667  139.0679  160.4882 C.3     1  UNL1        0.0741
      3 C         139.5417  138.4221  161.8401 C.3     1  UNL1        0.0370
      4 C         138.7358  138.9717  162.9796 C.3     1  UNL1        0.0760
      5 C         137.8549  140.1672  162.7672 C.3     1  UNL1        0.0370
      6 C         137.7800  140.8129  161.4154 C.3     1  UNL1        0.0741
      7 N         138.8107  138.3260  164.3313 N.pl3   1  UNL1       -0.2899
      8 H         138.3699  137.4597  164.4881 H       1  UNL1        0.1511
      9 C         139.5571  139.0000  165.4442 C.ar    1  UNL1        0.2890
     10 N         139.0050  139.3404  166.7967 N.ar    1  UNL1       -0.1948
     11 C         140.0934  140.0028  167.5884 C.ar    1  UNL1        0.1202
     12 C         140.1274  140.5520  168.9838 C.ar    1  UNL1        0.0235
     13 C         141.3862  141.1703  169.5159 C.ar    1  UNL1        0.0157
     14 C         142.6109  141.2393  168.6527 C.ar    1  UNL1        0.0044
     15 C         142.5769  140.6900  167.2573 C.ar    1  UNL1        0.0392
     16 C         141.3181  140.0718  166.7252 C.ar    1  UNL1        0.1660
     17 O         140.9867  139.4520  165.4000 O.2     1  UNL1       -0.4239
     18 C         141.4202  141.7195  170.9114 C.2     1  UNL1        0.0729
     19 O         142.3135  142.8790  171.2394 O.co2   1  UNL1       -0.5446
     20 O         140.5610  141.1093  171.9787 O.co2   1  UNL1       -0.5446
     21 C         138.5110  140.9091  158.9241 C.3     1  UNL1        0.0993
     22 C         140.9500  143.9986  159.4300 C.ar    1  UNL1        0.1517
     23 C         140.1836  142.7383  159.7026 C.ar    1  UNL1        0.0351
     24 C         139.2773  142.1694  158.6515 C.ar    1  UNL1       -0.0001
     25 C         139.1373  142.8607  157.3277 C.ar    1  UNL1        0.0351
     26 C         139.9037  144.1211  157.0550 C.ar    1  UNL1        0.1517
     27 C         140.8100  144.6900  158.1062 C.ar    1  UNL1        0.1253
     28 CL        141.5764  145.9503  157.8335 Cl      1  UNL1       -0.0759
     29 O         141.8563  144.5675  160.4811 O.3     1  UNL1       -0.4745
     30 C         140.1759  145.9717  161.8791 C.3     1  UNL1        0.0512
     31 C         141.2974  144.9779  161.8112 C.3     1  UNL1        0.2056
     32 O         139.7637  144.8124  155.7313 O.3     1  UNL1       -0.4745
     33 C         138.6492  145.7917  155.5108 C.3     1  UNL1        0.2056
     34 C         138.9156  147.2649  155.6050 C.3     1  UNL1        0.0512
@<TRIPOS>UNITY_ATOM_ATTR
19 1
charge -1
@<TRIPOS>BOND
     1    30    31    1
     2    31    29    1
     3    29    22    1
     4    22    23   ar
     5    23    24   ar
     6    24    21    1
     7    21     1    1
     8     1     2    1
     9     2     3    1
    10     3     4    1
    11     4     7    1
    12     7     9    1
    13     9    10   ar
    14    10    11   ar
    15    11    12   ar
    16    12    13   ar
    17    13    18    1
    18    18    19   ar
    19    18    20   ar
    20    13    14   ar
    21    14    15   ar
    22    15    16   ar
    23    16    17   ar
    24     4     5    1
    25     5     6    1
    26    24    25   ar
    27    25    26   ar
    28    26    32    1
    29    32    33    1
    30    33    34    1
    31    26    27   ar
    32    27    28    1
    33    27    22   ar
    34     6     1    1
    35    17     9   ar
    36    16    11   ar
    37     7     8    1
