@<TRIPOS>MOLECULE
*****
 35 37 0 0 0
SMALL
GASTEIGER

@<TRIPOS>ATOM
      1 C         138.9036  139.0987  160.1662 C.ar    1  UNL1        0.1387
      2 C         139.6369  138.0649  160.9684 C.ar    1  UNL1        0.0383
      3 C         139.4926  138.0325  162.4611 C.ar    1  UNL1        0.0233
      4 C         138.6150  139.0339  163.1516 C.ar    1  UNL1        0.1255
      5 C         137.8817  140.0678  162.3494 C.ar    1  UNL1        0.0233
      6 C         138.0260  140.1002  160.8568 C.ar    1  UNL1        0.0383
      7 S         138.4706  139.0016  164.6443 S.O2    1  UNL1        0.0768
      8 O         137.8601  140.3714  164.6150 O.2     1  UNL1       -0.1498
      9 O         139.0811  137.6318  164.6736 O.2     1  UNL1       -0.1498
     10 N         138.3263  138.9692  166.1370 N.am    1  UNL1       -0.1690
     11 C         139.2960  139.7199  167.0007 C.2     1  UNL1        0.3231
     12 O         140.4100  140.5031  166.3718 O.2     1  UNL1       -0.2509
     13 N         139.1516  139.6875  168.4934 N.am    1  UNL1       -0.2671
     14 H         137.5951  138.4552  166.5498 H       1  UNL1        0.1781
     15 H         138.4204  139.1735  168.9062 H       1  UNL1        0.1565
     16 C         140.1213  140.4383  169.3572 C.ar    1  UNL1        0.0516
     17 C         141.3044  139.7298  169.9473 C.ar    1  UNL1        0.0147
     18 C         142.2741  140.4805  170.8110 C.ar    1  UNL1        0.0013
     19 C         142.0607  141.9398  171.0847 C.ar    1  UNL1        0.0001
     20 C         140.8775  142.6484  170.4946 C.ar    1  UNL1        0.0013
     21 C         139.9078  141.8976  169.6308 C.ar    1  UNL1        0.0147
     22 O         139.0480  139.1311  158.6735 O.3     1  UNL1       -0.4740
     23 C         140.2493  138.5122  158.0226 C.3     1  UNL1        0.2226
     24 C         141.5338  139.2816  157.9333 C.3     1  UNL1        0.1200
     25 C         143.9843  140.0068  161.6372 C.3     1  UNL1        0.1018
     26 C         143.9426  138.6397  161.0213 C.3     1  UNL1        0.0285
     27 C         143.1258  138.3980  159.7866 C.3     1  UNL1        0.0728
     28 N         142.3506  139.5233  159.1679 N.3     1  UNL1       -0.2695
     29 C         142.3924  140.8903  159.7839 C.3     1  UNL1        0.0728
     30 C         143.2092  141.1321  161.0185 C.3     1  UNL1        0.0285
     31 C         144.8012  140.2485  162.8718 C.2     1  UNL1        0.3165
     32 O         145.6919  141.4522  162.9580 O.2     1  UNL1       -0.2501
     33 O         144.7273  139.2864  164.0203 O.3     1  UNL1       -0.4485
     34 C         143.4544  138.4249  166.1150 C.3     1  UNL1        0.0513
     35 C         143.4529  139.1439  164.7985 C.3     1  UNL1        0.2086
@<TRIPOS>BOND
     1    34    35    1
     2    35    33    1
     3    33    31    1
     4    31    32    2
     5    31    25    1
     6    25    26    1
     7    26    27    1
     8    27    28    1
     9    28    24    1
    10    24    23    1
    11    23    22    1
    12    22     1    1
    13     1     2   ar
    14     2     3   ar
    15     3     4   ar
    16     4     7    1
    17     7     8    2
    18     7     9    2
    19     7    10    1
    20    10    11   am
    21    11    12    2
    22    11    13   am
    23    13    16    1
    24    16    17   ar
    25    17    18   ar
    26    18    19   ar
    27    19    20   ar
    28    20    21   ar
    29     4     5   ar
    30     5     6   ar
    31    28    29    1
    32    29    30    1
    33    30    25    1
    34     6     1   ar
    35    21    16   ar
    36    10    14    1
    37    13    15    1
@<TRIPOS>MOLECULE
*****
 35 37 0 0 0
SMALL
GASTEIGER

@<TRIPOS>ATOM
      1 C         140.3813  143.1813  166.3238 C.ar    1  UNL1        0.1387
      2 C         139.4368  144.0728  165.5734 C.ar    1  UNL1        0.0383
      3 C         139.7994  144.5665  164.2042 C.ar    1  UNL1        0.0233
      4 C         141.1066  144.1686  163.5853 C.ar    1  UNL1        0.1255
      5 C         142.0512  143.2771  164.3358 C.ar    1  UNL1        0.0233
      6 C         141.6885  142.7834  165.7049 C.ar    1  UNL1        0.0383
      7 S         141.4693  144.6623  162.2161 S.O2    1  UNL1        0.0768
      8 O         142.2011  143.3807  161.9479 O.2     1  UNL1       -0.1498
      9 O         140.7375  145.9439  162.4844 O.2     1  UNL1       -0.1498
     10 N         141.8320  145.1559  160.8469 N.am    1  UNL1       -0.1690
     11 C         140.8275  145.0887  159.7350 C.2     1  UNL1        0.3231
     12 O         139.4604  144.5277  159.9922 O.2     1  UNL1       -0.2509
     13 N         141.1903  145.5824  158.3657 N.am    1  UNL1       -0.2671
     14 H         142.7293  145.5241  160.6781 H       1  UNL1        0.1781
     15 H         142.0876  145.9505  158.1969 H       1  UNL1        0.1565
     16 C         140.1858  145.5151  157.2537 C.ar    1  UNL1        0.0516
     17 C         139.6533  146.7791  156.6466 C.ar    1  UNL1        0.0147
     18 C         138.6488  146.7118  155.5346 C.ar    1  UNL1        0.0013
     19 C         138.1768  145.3805  155.0298 C.ar    1  UNL1        0.0001
     20 C         138.7093  144.1164  155.6369 C.ar    1  UNL1        0.0013
     21 C         139.7138  144.1837  156.7489 C.ar    1  UNL1        0.0147
     22 O         140.0187  142.6876  167.6930 O.3     1  UNL1       -0.4740
     23 C         140.9284  141.7365  168.4127 C.3     1  UNL1        0.2226
     24 C         140.6905  140.2583  168.3232 C.3     1  UNL1        0.1200
     25 C         139.9805  138.3319  164.3188 C.3     1  UNL1        0.1018
     26 C         138.8162  138.7271  165.1780 C.3     1  UNL1        0.0285
     27 C         139.0529  139.3692  166.5128 C.3     1  UNL1        0.0728
     28 N         140.4538  139.6162  166.9884 N.3     1  UNL1       -0.2695
     29 C         141.6181  139.2210  166.1292 C.3     1  UNL1        0.0728
     30 C         141.3814  138.5789  164.7944 C.3     1  UNL1        0.0285
     31 C         139.7438  137.6898  162.9840 C.2     1  UNL1        0.3165
     32 O         140.9029  137.1736  162.1840 O.2     1  UNL1       -0.2501
     33 O         138.3481  137.5640  162.4492 O.3     1  UNL1       -0.4485
     34 C         138.5170  139.3143  160.5366 C.3     1  UNL1        0.0513
     35 C         137.7439  138.6862  161.6582 C.3     1  UNL1        0.2086
@<TRIPOS>BOND
     1    34    35    1
     2    35    33    1
     3    33    31    1
     4    31    32    2
     5    31    25    1
     6    25    26    1
     7    26    27    1
     8    27    28    1
     9    28    24    1
    10    24    23    1
    11    23    22    1
    12    22     1    1
    13     1     2   ar
    14     2     3   ar
    15     3     4   ar
    16     4     7    1
    17     7     8    2
    18     7     9    2
    19     7    10    1
    20    10    11   am
    21    11    12    2
    22    11    13   am
    23    13    16    1
    24    16    17   ar
    25    17    18   ar
    26    18    19   ar
    27    19    20   ar
    28    20    21   ar
    29     4     5   ar
    30     5     6   ar
    31    28    29    1
    32    29    30    1
    33    30    25    1
    34     6     1   ar
    35    21    16   ar
    36    10    14    1
    37    13    15    1
@<TRIPOS>MOLECULE
*****
 35 37 0 0 0
SMALL
GASTEIGER

@<TRIPOS>ATOM
      1 C         138.7980  139.1669  160.0379 C.ar    1  UNL1        0.1387
      2 C         137.9304  140.1750  160.7312 C.ar    1  UNL1        0.0383
      3 C         137.8085  140.1579  162.2262 C.ar    1  UNL1        0.0233
      4 C         138.5543  139.1325  163.0278 C.ar    1  UNL1        0.1255
      5 C         139.4219  138.1243  162.3343 C.ar    1  UNL1        0.0233
      6 C         139.5438  138.1415  160.8394 C.ar    1  UNL1        0.0383
      7 S         138.4324  139.1153  164.5227 S.O2    1  UNL1        0.0768
      8 O         137.8080  140.4787  164.4875 O.2     1  UNL1       -0.1498
      9 O         139.0568  137.7519  164.5579 O.2     1  UNL1       -0.1498
     10 N         138.3105  139.0981  166.0176 N.am    1  UNL1       -0.1690
     11 C         139.3352  139.7964  166.8617 C.2     1  UNL1        0.3231
     12 O         140.4816  140.5119  166.2109 O.2     1  UNL1       -0.2509
     13 N         139.2133  139.7792  168.3567 N.am    1  UNL1       -0.2671
     14 H         137.5581  138.6285  166.4448 H       1  UNL1        0.1781
     15 H         138.4608  139.3096  168.7838 H       1  UNL1        0.1565
     16 C         140.2379  140.4775  169.2008 C.ar    1  UNL1        0.0516
     17 C         140.1547  141.9609  169.4074 C.ar    1  UNL1        0.0147
     18 C         141.1793  142.6592  170.2515 C.ar    1  UNL1        0.0013
     19 C         142.2871  141.8741  170.8890 C.ar    1  UNL1        0.0001
     20 C         142.3703  140.3907  170.6824 C.ar    1  UNL1        0.0013
     21 C         141.3457  139.6924  169.8383 C.ar    1  UNL1        0.0147
     22 O         138.9199  139.1840  158.5429 O.3     1  UNL1       -0.4740
     23 C         139.8666  140.1392  157.8785 C.3     1  UNL1        0.2226
     24 C         141.0338  140.6912  158.6420 C.3     1  UNL1        0.1200
     25 C         140.4417  144.1332  161.4796 C.3     1  UNL1        0.1018
     26 C         140.0280  144.2651  160.0438 C.3     1  UNL1        0.0285
     27 C         140.2254  143.1178  159.0980 C.3     1  UNL1        0.0728
     28 N         140.8364  141.8385  159.5878 N.3     1  UNL1       -0.2695
     29 C         141.2502  141.7066  161.0236 C.3     1  UNL1        0.0728
     30 C         141.0528  142.8539  161.9694 C.3     1  UNL1        0.0285
     31 C         140.2443  145.2805  162.4254 C.2     1  UNL1        0.3165
     32 O         139.8833  146.6363  161.8949 O.2     1  UNL1       -0.2501
     33 O         140.4080  145.0721  163.9018 O.3     1  UNL1       -0.4485
     34 C         137.9625  144.2134  164.0823 C.3     1  UNL1        0.0513
     35 C         139.2263  144.6831  164.7398 C.3     1  UNL1        0.2086
@<TRIPOS>BOND
     1    34    35    1
     2    35    33    1
     3    33    31    1
     4    31    32    2
     5    31    25    1
     6    25    26    1
     7    26    27    1
     8    27    28    1
     9    28    24    1
    10    24    23    1
    11    23    22    1
    12    22     1    1
    13     1     2   ar
    14     2     3   ar
    15     3     4   ar
    16     4     7    1
    17     7     8    2
    18     7     9    2
    19     7    10    1
    20    10    11   am
    21    11    12    2
    22    11    13   am
    23    13    16    1
    24    16    17   ar
    25    17    18   ar
    26    18    19   ar
    27    19    20   ar
    28    20    21   ar
    29     4     5   ar
    30     5     6   ar
    31    28    29    1
    32    29    30    1
    33    30    25    1
    34     6     1   ar
    35    21    16   ar
    36    10    14    1
    37    13    15    1
@<TRIPOS>MOLECULE
*****
 35 37 0 0 0
SMALL
GASTEIGER

@<TRIPOS>ATOM
      1 C         143.7026  139.2350  159.8549 C.ar    1  UNL1        0.1387
      2 C         144.1328  140.4402  160.6375 C.ar    1  UNL1        0.0383
      3 C         144.1060  140.4097  162.1370 C.ar    1  UNL1        0.0233
      4 C         143.6490  139.1738  162.8539 C.ar    1  UNL1        0.1255
      5 C         143.2188  137.9686  162.0712 C.ar    1  UNL1        0.0233
      6 C         143.2456  137.9992  160.5718 C.ar    1  UNL1        0.0383
      7 S         143.6223  139.1432  164.3533 S.O2    1  UNL1        0.0768
      8 O         144.7315  140.1521  164.3937 O.2     1  UNL1       -0.1498
      9 O         142.5131  138.1343  164.3129 O.2     1  UNL1       -0.1498
     10 N         143.5955  139.1126  165.8527 N.am    1  UNL1       -0.1690
     11 C         142.6804  140.0324  166.6054 C.2     1  UNL1        0.3231
     12 O         141.7921  140.9828  165.8587 O.2     1  UNL1       -0.2509
     13 N         142.6537  140.0017  168.1049 N.am    1  UNL1       -0.2671
     14 H         144.1785  138.4888  166.3428 H       1  UNL1        0.1781
     15 H         143.2367  139.3779  168.5950 H       1  UNL1        0.1565
     16 C         141.7386  140.9215  168.8577 C.ar    1  UNL1        0.0516
     17 C         142.1602  142.3331  169.1400 C.ar    1  UNL1        0.0147
     18 C         141.2452  143.2529  169.8927 C.ar    1  UNL1        0.0013
     19 C         139.9084  142.7611  170.3631 C.ar    1  UNL1        0.0001
     20 C         139.4867  141.3495  170.0808 C.ar    1  UNL1        0.0013
     21 C         140.4018  140.4297  169.3281 C.ar    1  UNL1        0.0147
     22 O         143.7294  139.2656  158.3554 O.3     1  UNL1       -0.4740
     23 C         142.4868  138.9501  157.5766 C.3     1  UNL1        0.2226
     24 C         141.2488  139.7737  157.7735 C.3     1  UNL1        0.1200
     25 C         139.0728  139.6589  161.7108 C.3     1  UNL1        0.1018
     26 C         139.0207  138.4757  160.7903 C.3     1  UNL1        0.0285
     27 C         139.7461  138.5140  159.4779 C.3     1  UNL1        0.0728
     28 N         140.5235  139.7355  159.0859 N.3     1  UNL1       -0.2695
     29 C         140.5755  140.9187  160.0064 C.3     1  UNL1        0.0728
     30 C         139.8501  140.8804  161.3188 C.3     1  UNL1        0.0285
     31 C         138.3474  139.6207  163.0232 C.2     1  UNL1        0.3165
     32 O         137.4397  140.7499  163.4116 O.2     1  UNL1       -0.2501
     33 O         138.5298  138.4532  163.9471 O.3     1  UNL1       -0.4485
     34 C         138.0661  138.9473  166.4553 C.3     1  UNL1        0.0513
     35 C         139.0340  138.6728  165.3427 C.3     1  UNL1        0.2086
@<TRIPOS>BOND
     1    34    35    1
     2    35    33    1
     3    33    31    1
     4    31    32    2
     5    31    25    1
     6    25    26    1
     7    26    27    1
     8    27    28    1
     9    28    24    1
    10    24    23    1
    11    23    22    1
    12    22     1    1
    13     1     2   ar
    14     2     3   ar
    15     3     4   ar
    16     4     7    1
    17     7     8    2
    18     7     9    2
    19     7    10    1
    20    10    11   am
    21    11    12    2
    22    11    13   am
    23    13    16    1
    24    16    17   ar
    25    17    18   ar
    26    18    19   ar
    27    19    20   ar
    28    20    21   ar
    29     4     5   ar
    30     5     6   ar
    31    28    29    1
    32    29    30    1
    33    30    25    1
    34     6     1   ar
    35    21    16   ar
    36    10    14    1
    37    13    15    1
@<TRIPOS>MOLECULE
*****
 35 37 0 0 0
SMALL
GASTEIGER

@<TRIPOS>ATOM
      1 C         138.6686  139.0933  166.2444 C.ar    1  UNL1        0.1387
      2 C         138.9086  137.7770  165.5666 C.ar    1  UNL1        0.0383
      3 C         138.9747  137.7052  164.0697 C.ar    1  UNL1        0.0233
      4 C         138.8009  138.9498  163.2508 C.ar    1  UNL1        0.1255
      5 C         138.5609  140.2663  163.9287 C.ar    1  UNL1        0.0233
      6 C         138.4948  140.3380  165.4255 C.ar    1  UNL1        0.0383
      7 S         138.8670  138.8781  161.7540 S.O2    1  UNL1        0.0768
      8 O         137.5050  138.2504  161.7239 O.2     1  UNL1       -0.1498
      9 O         140.2289  139.5058  161.7841 O.2     1  UNL1       -0.1498
     10 N         138.9331  138.8064  160.2572 N.am    1  UNL1       -0.1690
     11 C         138.4378  139.9546  159.4287 C.2     1  UNL1        0.3231
     12 O         137.8765  141.1745  160.0970 O.2     1  UNL1       -0.2509
     13 N         138.5040  139.8828  157.9318 N.am    1  UNL1       -0.2671
     14 H         139.3015  138.0057  159.8185 H       1  UNL1        0.1781
     15 H         138.8724  139.0821  157.4932 H       1  UNL1        0.1565
     16 C         138.0088  141.0310  157.1033 C.ar    1  UNL1        0.0516
     17 C         136.6493  140.9693  156.4724 C.ar    1  UNL1        0.0147
     18 C         136.1541  142.1174  155.6439 C.ar    1  UNL1        0.0013
     19 C         137.0183  143.3274  155.4463 C.ar    1  UNL1        0.0001
     20 C         138.3778  143.3892  156.0772 C.ar    1  UNL1        0.0013
     21 C         138.8731  142.2410  156.9057 C.ar    1  UNL1        0.0147
     22 O         138.6025  139.1651  167.7413 O.3     1  UNL1       -0.4740
     23 C         139.4552  140.1512  168.4833 C.3     1  UNL1        0.2226
     24 C         140.9402  139.9526  168.5567 C.3     1  UNL1        0.1200
     25 C         143.4788  140.5860  164.8955 C.3     1  UNL1        0.1018
     26 C         143.3896  139.2251  165.5200 C.3     1  UNL1        0.0285
     27 C         142.5434  139.0140  166.7404 C.3     1  UNL1        0.0728
     28 N         141.7864  140.1637  167.3363 N.3     1  UNL1       -0.2695
     29 C         141.8756  141.5246  166.7117 C.3     1  UNL1        0.0728
     30 C         142.7218  141.7357  165.4913 C.3     1  UNL1        0.0285
     31 C         144.3249  140.7971  163.6751 C.2     1  UNL1        0.3165
     32 O         145.7689  141.1765  163.8201 O.2     1  UNL1       -0.2501
     33 O         143.7272  140.6288  162.3097 O.3     1  UNL1       -0.4485
     34 C         143.6577  138.1060  161.6928 C.3     1  UNL1        0.0513
     35 C         144.1661  139.4932  161.4335 C.3     1  UNL1        0.2086
@<TRIPOS>BOND
     1    34    35    1
     2    35    33    1
     3    33    31    1
     4    31    32    2
     5    31    25    1
     6    25    26    1
     7    26    27    1
     8    27    28    1
     9    28    24    1
    10    24    23    1
    11    23    22    1
    12    22     1    1
    13     1     2   ar
    14     2     3   ar
    15     3     4   ar
    16     4     7    1
    17     7     8    2
    18     7     9    2
    19     7    10    1
    20    10    11   am
    21    11    12    2
    22    11    13   am
    23    13    16    1
    24    16    17   ar
    25    17    18   ar
    26    18    19   ar
    27    19    20   ar
    28    20    21   ar
    29     4     5   ar
    30     5     6   ar
    31    28    29    1
    32    29    30    1
    33    30    25    1
    34     6     1   ar
    35    21    16   ar
    36    10    14    1
    37    13    15    1
@<TRIPOS>MOLECULE
*****
 35 37 0 0 0
SMALL
GASTEIGER

@<TRIPOS>ATOM
      1 C         143.6750  139.2623  159.8225 C.ar    1  UNL1        0.1387
      2 C         143.1966  138.0337  160.5378 C.ar    1  UNL1        0.0383
      3 C         143.1694  138.0015  162.0372 C.ar    1  UNL1        0.0233
      4 C         143.6206  139.1980  162.8213 C.ar    1  UNL1        0.1255
      5 C         144.0990  140.4266  162.1060 C.ar    1  UNL1        0.0233
      6 C         144.1262  140.4588  160.6066 C.ar    1  UNL1        0.0383
      7 S         143.5934  139.1659  164.3207 S.O2    1  UNL1        0.0768
      8 O         142.4903  138.1503  164.2790 O.2     1  UNL1       -0.1498
      9 O         144.6965  140.1814  164.3625 O.2     1  UNL1       -0.1498
     10 N         143.5662  139.1338  165.8201 N.am    1  UNL1       -0.1690
     11 C         142.6693  140.0702  166.5742 C.2     1  UNL1        0.3231
     12 O         141.7997  141.0388  165.8289 O.2     1  UNL1       -0.2509
     13 N         142.6422  140.0381  168.0737 N.am    1  UNL1       -0.2671
     14 H         144.1370  138.4980  166.3093 H       1  UNL1        0.1781
     15 H         143.2130  139.4023  168.5628 H       1  UNL1        0.1565
     16 C         141.7453  140.9745  168.8278 C.ar    1  UNL1        0.0516
     17 C         140.3989  140.5087  169.2969 C.ar    1  UNL1        0.0147
     18 C         139.5020  141.4451  170.0510 C.ar    1  UNL1        0.0013
     19 C         139.9516  142.8475  170.3360 C.ar    1  UNL1        0.0001
     20 C         141.2981  143.3134  169.8669 C.ar    1  UNL1        0.0013
     21 C         142.1949  142.3770  169.1128 C.ar    1  UNL1        0.0147
     22 O         143.7022  139.2944  158.3231 O.3     1  UNL1       -0.4740
     23 C         142.7129  140.1362  157.5729 C.3     1  UNL1        0.2226
     24 C         141.2577  139.7729  157.5848 C.3     1  UNL1        0.1200
     25 C         138.8629  140.1999  161.3707 C.3     1  UNL1        0.1018
     26 C         139.6917  141.3472  160.8741 C.3     1  UNL1        0.0285
     27 C         140.4900  141.2049  159.6121 C.3     1  UNL1        0.0728
     28 N         140.4594  139.9152  158.8467 N.3     1  UNL1       -0.2695
     29 C         139.6306  138.7679  159.3433 C.3     1  UNL1        0.0728
     30 C         138.8323  138.9103  160.6053 C.3     1  UNL1        0.0285
     31 C         138.0646  140.3422  162.6326 C.2     1  UNL1        0.3165
     32 O         138.2255  139.3419  163.7387 O.2     1  UNL1       -0.2501
     33 O         137.1055  141.4849  162.7885 O.3     1  UNL1       -0.4485
     34 C         137.8073  143.9788  162.9843 C.3     1  UNL1        0.0513
     35 C         137.4783  142.6670  163.6333 C.3     1  UNL1        0.2086
@<TRIPOS>BOND
     1    34    35    1
     2    35    33    1
     3    33    31    1
     4    31    32    2
     5    31    25    1
     6    25    26    1
     7    26    27    1
     8    27    28    1
     9    28    24    1
    10    24    23    1
    11    23    22    1
    12    22     1    1
    13     1     2   ar
    14     2     3   ar
    15     3     4   ar
    16     4     7    1
    17     7     8    2
    18     7     9    2
    19     7    10    1
    20    10    11   am
    21    11    12    2
    22    11    13   am
    23    13    16    1
    24    16    17   ar
    25    17    18   ar
    26    18    19   ar
    27    19    20   ar
    28    20    21   ar
    29     4     5   ar
    30     5     6   ar
    31    28    29    1
    32    29    30    1
    33    30    25    1
    34     6     1   ar
    35    21    16   ar
    36    10    14    1
    37    13    15    1
@<TRIPOS>MOLECULE
*****
 35 37 0 0 0
SMALL
GASTEIGER

@<TRIPOS>ATOM
      1 C         143.1246  138.7145  165.7282 C.ar    1  UNL1        0.1387
      2 C         144.1957  139.5151  165.0486 C.ar    1  UNL1        0.0383
      3 C         144.2034  139.6413  163.5539 C.ar    1  UNL1        0.0233
      4 C         143.1400  138.9668  162.7389 C.ar    1  UNL1        0.1255
      5 C         142.0689  138.1661  163.4185 C.ar    1  UNL1        0.0233
      6 C         142.0613  138.0400  164.9131 C.ar    1  UNL1        0.0383
      7 S         143.1477  139.0929  161.2442 S.O2    1  UNL1        0.0768
      8 O         144.6026  138.7287  161.2210 O.2     1  UNL1       -0.1498
      9 O         141.6928  139.4571  161.2675 O.2     1  UNL1       -0.1498
     10 N         143.1554  139.2190  159.7496 N.am    1  UNL1       -0.1690
     11 C         142.9252  138.0089  158.8936 C.2     1  UNL1        0.3231
     12 O         142.6873  136.6727  159.5323 O.2     1  UNL1       -0.2509
     13 N         142.9328  138.1351  157.3989 N.am    1  UNL1       -0.2671
     14 H         143.3115  140.0960  159.3304 H       1  UNL1        0.1781
     15 H         143.0890  139.0121  156.9797 H       1  UNL1        0.1565
     16 C         142.7026  136.9250  156.5429 C.ar    1  UNL1        0.0516
     17 C         141.3077  136.5398  156.1483 C.ar    1  UNL1        0.0147
     18 C         141.0775  135.3298  155.2923 C.ar    1  UNL1        0.0013
     19 C         142.2422  134.5049  154.8309 C.ar    1  UNL1        0.0001
     20 C         143.6373  134.8900  155.2256 C.ar    1  UNL1        0.0013
     21 C         143.8675  136.1001  156.0815 C.ar    1  UNL1        0.0147
     22 O         143.1169  138.5884  167.2229 O.3     1  UNL1       -0.4740
     23 C         142.6454  139.7331  168.0698 C.3     1  UNL1        0.2226
     24 C         141.1765  139.9841  168.2410 C.3     1  UNL1        0.1200
     25 C         138.6368  141.0047  164.6692 C.3     1  UNL1        0.1018
     26 C         138.2386  139.8774  165.5751 C.3     1  UNL1        0.0285
     27 C         139.0852  139.5372  166.7657 C.3     1  UNL1        0.0728
     28 N         140.3299  140.3243  167.0504 N.3     1  UNL1       -0.2695
     29 C         140.7281  141.4516  166.1445 C.3     1  UNL1        0.0728
     30 C         139.8815  141.7918  164.9539 C.3     1  UNL1        0.0285
     31 C         137.7902  141.3449  163.4785 C.2     1  UNL1        0.3165
     32 O         137.4035  142.7702  163.2158 O.2     1  UNL1       -0.2501
     33 O         137.3303  140.2598  162.5506 O.3     1  UNL1       -0.4485
     34 C         138.5217  137.9542  162.4280 C.3     1  UNL1        0.0513
     35 C         138.3329  139.3483  161.9073 C.3     1  UNL1        0.2086
@<TRIPOS>BOND
     1    34    35    1
     2    35    33    1
     3    33    31    1
     4    31    32    2
     5    31    25    1
     6    25    26    1
     7    26    27    1
     8    27    28    1
     9    28    24    1
    10    24    23    1
    11    23    22    1
    12    22     1    1
    13     1     2   ar
    14     2     3   ar
    15     3     4   ar
    16     4     7    1
    17     7     8    2
    18     7     9    2
    19     7    10    1
    20    10    11   am
    21    11    12    2
    22    11    13   am
    23    13    16    1
    24    16    17   ar
    25    17    18   ar
    26    18    19   ar
    27    19    20   ar
    28    20    21   ar
    29     4     5   ar
    30     5     6   ar
    31    28    29    1
    32    29    30    1
    33    30    25    1
    34     6     1   ar
    35    21    16   ar
    36    10    14    1
    37    13    15    1
@<TRIPOS>MOLECULE
*****
 35 37 0 0 0
SMALL
GASTEIGER

@<TRIPOS>ATOM
      1 C         143.3324  138.8093  165.8360 C.ar    1  UNL1        0.1387
      2 C         144.5322  139.4339  165.1878 C.ar    1  UNL1        0.0383
      3 C         144.6468  139.4633  163.6925 C.ar    1  UNL1        0.0233
      4 C         143.5614  138.8680  162.8453 C.ar    1  UNL1        0.1255
      5 C         142.3615  138.2434  163.4935 C.ar    1  UNL1        0.0233
      6 C         142.2470  138.2141  164.9888 C.ar    1  UNL1        0.0383
      7 S         143.6760  138.8974  161.3500 S.O2    1  UNL1        0.0768
      8 O         143.2123  140.3238  161.3425 O.2     1  UNL1       -0.1498
      9 O         144.1396  137.4709  161.3575 O.2     1  UNL1       -0.1498
     10 N         143.7905  138.9267  159.8547 N.am    1  UNL1       -0.1690
     11 C         142.6128  138.5515  159.0048 C.2     1  UNL1        0.3231
     12 O         141.3207  138.1469  159.6502 O.2     1  UNL1       -0.2509
     13 N         142.7274  138.5808  157.5094 N.am    1  UNL1       -0.2671
     14 H         144.6386  139.1922  159.4311 H       1  UNL1        0.1781
     15 H         143.5755  138.8464  157.0858 H       1  UNL1        0.1565
     16 C         141.5498  138.2056  156.6595 C.ar    1  UNL1        0.0516
     17 C         140.5370  139.2450  156.2802 C.ar    1  UNL1        0.0147
     18 C         139.3594  138.8698  155.4303 C.ar    1  UNL1        0.0013
     19 C         139.1945  137.4551  154.9597 C.ar    1  UNL1        0.0001
     20 C         140.2072  136.4156  155.3390 C.ar    1  UNL1        0.0013
     21 C         141.3849  136.7909  156.1889 C.ar    1  UNL1        0.0147
     22 O         143.2178  138.7800  167.3314 O.3     1  UNL1       -0.4740
     23 C         142.5617  139.9178  168.0558 C.3     1  UNL1        0.2226
     24 C         141.0677  139.9651  168.1815 C.3     1  UNL1        0.1200
     25 C         138.5839  141.7066  164.8578 C.3     1  UNL1        0.1018
     26 C         139.6539  142.5335  165.5068 C.3     1  UNL1        0.0285
     27 C         140.4818  141.9530  166.6148 C.3     1  UNL1        0.0728
     28 N         140.2398  140.5456  167.0736 N.3     1  UNL1       -0.2695
     29 C         139.1698  139.7187  166.4245 C.3     1  UNL1        0.0728
     30 C         138.3419  140.2992  165.3166 C.3     1  UNL1        0.0285
     31 C         137.7559  142.2872  163.7498 C.2     1  UNL1        0.3165
     32 O         137.5996  143.7742  163.6304 O.2     1  UNL1       -0.2501
     33 O         137.0843  141.3807  162.7613 O.3     1  UNL1       -0.4485
     34 C         139.0792  140.1628  161.6266 C.3     1  UNL1        0.0513
     35 C         137.8105  140.9559  161.5194 C.3     1  UNL1        0.2086
@<TRIPOS>BOND
     1    34    35    1
     2    35    33    1
     3    33    31    1
     4    31    32    2
     5    31    25    1
     6    25    26    1
     7    26    27    1
     8    27    28    1
     9    28    24    1
    10    24    23    1
    11    23    22    1
    12    22     1    1
    13     1     2   ar
    14     2     3   ar
    15     3     4   ar
    16     4     7    1
    17     7     8    2
    18     7     9    2
    19     7    10    1
    20    10    11   am
    21    11    12    2
    22    11    13   am
    23    13    16    1
    24    16    17   ar
    25    17    18   ar
    26    18    19   ar
    27    19    20   ar
    28    20    21   ar
    29     4     5   ar
    30     5     6   ar
    31    28    29    1
    32    29    30    1
    33    30    25    1
    34     6     1   ar
    35    21    16   ar
    36    10    14    1
    37    13    15    1
@<TRIPOS>MOLECULE
*****
 35 37 0 0 0
SMALL
GASTEIGER

@<TRIPOS>ATOM
      1 C         143.6877  139.3207  159.8540 C.ar    1  UNL1        0.1387
      2 C         144.1002  140.5195  160.6555 C.ar    1  UNL1        0.0383
      3 C         144.0589  140.4702  162.1542 C.ar    1  UNL1        0.0233
      4 C         143.6051  139.2220  162.8513 C.ar    1  UNL1        0.1255
      5 C         143.1926  138.0230  162.0497 C.ar    1  UNL1        0.0233
      6 C         143.2339  138.0724  160.5511 C.ar    1  UNL1        0.0383
      7 S         143.5638  139.1726  164.3499 S.O2    1  UNL1        0.0768
      8 O         144.7095  140.1386  164.4133 O.2     1  UNL1       -0.1498
      9 O         142.4180  138.2066  164.2864 O.2     1  UNL1       -0.1498
     10 N         143.5224  139.1233  165.8484 N.am    1  UNL1       -0.1690
     11 C         142.6448  140.0748  166.6063 C.2     1  UNL1        0.3231
     12 O         141.8085  141.0757  165.8656 O.2     1  UNL1       -0.2509
     13 N         142.6035  140.0254  168.1050 N.am    1  UNL1       -0.2671
     14 H         144.0714  138.4663  166.3346 H       1  UNL1        0.1781
     15 H         143.1524  139.3685  168.5911 H       1  UNL1        0.1565
     16 C         141.7259  140.9769  168.8628 C.ar    1  UNL1        0.0516
     17 C         140.3619  140.5435  169.3119 C.ar    1  UNL1        0.0147
     18 C         139.4843  141.4951  170.0698 C.ar    1  UNL1        0.0013
     19 C         139.9706  142.8800  170.3785 C.ar    1  UNL1        0.0001
     20 C         141.3346  143.3135  169.9294 C.ar    1  UNL1        0.0013
     21 C         142.2123  142.3619  169.1716 C.ar    1  UNL1        0.0147
     22 O         143.7290  139.3700  158.3553 O.3     1  UNL1       -0.4740
     23 C         143.0395  140.4822  157.6223 C.3     1  UNL1        0.2226
     24 C         141.5885  140.7631  157.8785 C.3     1  UNL1        0.1200
     25 C         140.3995  143.9387  160.8369 C.3     1  UNL1        0.1018
     26 C         139.8079  142.5637  160.9342 C.3     1  UNL1        0.0285
     27 C         140.2042  141.5052  159.9480 C.3     1  UNL1        0.0728
     28 N         141.1922  141.8216  158.8646 N.3     1  UNL1       -0.2695
     29 C         141.7838  143.1965  158.7674 C.3     1  UNL1        0.0728
     30 C         141.3875  144.2550  159.7535 C.3     1  UNL1        0.0285
     31 C         140.0032  144.9972  161.8230 C.2     1  UNL1        0.3165
     32 O         139.3068  146.2390  161.3510 O.2     1  UNL1       -0.2501
     33 O         140.3033  144.8139  163.2812 O.3     1  UNL1       -0.4485
     34 C         137.9046  144.0733  163.9507 C.3     1  UNL1        0.0513
     35 C         139.1840  144.7843  164.2793 C.3     1  UNL1        0.2086
@<TRIPOS>BOND
     1    34    35    1
     2    35    33    1
     3    33    31    1
     4    31    32    2
     5    31    25    1
     6    25    26    1
     7    26    27    1
     8    27    28    1
     9    28    24    1
    10    24    23    1
    11    23    22    1
    12    22     1    1
    13     1     2   ar
    14     2     3   ar
    15     3     4   ar
    16     4     7    1
    17     7     8    2
    18     7     9    2
    19     7    10    1
    20    10    11   am
    21    11    12    2
    22    11    13   am
    23    13    16    1
    24    16    17   ar
    25    17    18   ar
    26    18    19   ar
    27    19    20   ar
    28    20    21   ar
    29     4     5   ar
    30     5     6   ar
    31    28    29    1
    32    29    30    1
    33    30    25    1
    34     6     1   ar
    35    21    16   ar
    36    10    14    1
    37    13    15    1
