@<TRIPOS>MOLECULE
*****
 42 48 0 0 0
SMALL
GASTEIGER

@<TRIPOS>ATOM
      1 C         140.1643  138.2636  161.8853 C.ar    1  UNL1        0.1390
      2 C         139.5710  138.3934  160.5138 C.ar    1  UNL1        0.0369
      3 C         140.3948  138.9480  159.3896 C.ar    1  UNL1        0.0037
      4 C         141.8120  139.3726  159.6370 C.ar    1  UNL1        0.0091
      5 C         142.4053  139.2428  161.0086 C.ar    1  UNL1        0.0325
      6 S         143.7639  139.5760  161.5502 S.2     1  UNL1       -0.0868
      7 C         143.7797  139.2274  163.0090 C.ar    1  UNL1        0.0296
      8 C         144.8479  139.3387  164.0561 C.ar    1  UNL1        0.0065
      9 C         144.5674  138.9014  165.4632 C.ar    1  UNL1        0.0005
     10 C         143.2186  138.3527  165.8232 C.ar    1  UNL1        0.0000
     11 C         142.1503  138.2414  164.7762 C.ar    1  UNL1        0.0006
     12 C         142.4308  138.6787  163.3691 C.ar    1  UNL1        0.0094
     13 C         141.5815  138.6882  162.1327 C.ar    1  UNL1        0.0404
     14 C         142.6359  139.9272  158.5129 C.ar    1  UNL1        0.0352
     15 C         142.9744  141.3882  158.4809 C.ar    1  UNL1        0.0031
     16 C         143.7982  141.9428  157.3568 C.ar    1  UNL1        0.0003
     17 C         144.2836  141.0364  156.2646 C.ar    1  UNL1        0.0062
     18 C         143.9451  139.5754  156.2966 C.ar    1  UNL1        0.0736
     19 C         144.4305  138.6690  155.2044 C.ar    1  UNL1        0.2030
     20 O         145.2543  139.2235  154.0802 O.2     1  UNL1       -0.2863
     21 C         144.0920  137.2081  155.2363 C.ar    1  UNL1        0.0955
     22 C         143.2681  136.6534  156.3605 C.ar    1  UNL1        0.2024
     23 O         142.7827  137.5599  157.4527 O.2     1  UNL1       -0.4398
     24 C         143.1212  139.0208  157.4207 C.ar    1  UNL1        0.1498
     25 N         142.9296  135.1925  156.3925 N.pl3   1  UNL1       -0.2742
     26 C         143.6765  134.2695  157.3090 C.3     1  UNL1        0.1257
     27 C         143.3380  132.8085  157.3410 C.3     1  UNL1        0.1637
     28 O         142.2527  132.2706  156.4564 O.3     1  UNL1       -0.3501
     29 C         141.5057  133.1936  155.5398 C.3     1  UNL1        0.1637
     30 C         141.8442  134.6546  155.5079 C.3     1  UNL1        0.1257
     31 O         139.3404  137.7090  163.0095 O.3     1  UNL1       -0.4739
     32 C         138.6357  138.6388  163.9524 C.3     1  UNL1        0.2226
     33 C         137.8758  139.8159  163.4167 C.3     1  UNL1        0.1201
     34 C         141.8793  145.4002  163.6097 C.3     1  UNL1        0.0948
     35 C         140.5738  145.1515  162.9142 C.2     1  UNL1        0.2262
     36 O         139.9428  146.2366  162.0931 O.2     1  UNL1       -0.2749
     37 N         139.8993  143.8176  163.0399 N.am    1  UNL1       -0.2767
     38 C         140.5304  142.7324  163.8610 C.3     1  UNL1        0.1107
     39 C         139.8559  141.3985  163.9866 C.3     1  UNL1        0.0940
     40 N         138.5503  141.1498  163.2911 N.3     1  UNL1       -0.2666
     41 C         137.9193  142.2349  162.4700 C.3     1  UNL1        0.0940
     42 C         138.5937  143.5688  162.3443 C.3     1  UNL1        0.1107
@<TRIPOS>BOND
     1    34    35    1
     2    35    36    2
     3    35    37   am
     4    37    38    1
     5    38    39    1
     6    39    40    1
     7    40    33    1
     8    33    32    1
     9    32    31    1
    10    31     1    1
    11     1     2   ar
    12     2     3   ar
    13     3     4   ar
    14     4    14    1
    15    14    15   ar
    16    15    16   ar
    17    16    17   ar
    18    17    18   ar
    19    18    19   ar
    20    19    20    2
    21    19    21   ar
    22    21    22   ar
    23    22    25    1
    24    25    26    1
    25    26    27    1
    26    27    28    1
    27    28    29    1
    28    29    30    1
    29    22    23   ar
    30    23    24   ar
    31     4     5   ar
    32     5     6   ar
    33     6     7   ar
    34     7     8   ar
    35     8     9   ar
    36     9    10   ar
    37    10    11   ar
    38    11    12   ar
    39    12    13   ar
    40    40    41    1
    41    41    42    1
    42    42    37    1
    43    13     1   ar
    44    24    14   ar
    45    13     5   ar
    46    24    18   ar
    47    12     7   ar
    48    30    25    1
@<TRIPOS>MOLECULE
*****
 42 48 0 0 0
SMALL
GASTEIGER

@<TRIPOS>ATOM
      1 C         140.1923  138.1750  162.0027 C.ar    1  UNL1        0.1390
      2 C         139.5839  138.2951  160.6369 C.ar    1  UNL1        0.0369
      3 C         140.3856  138.8694  159.5066 C.ar    1  UNL1        0.0037
      4 C         141.7956  139.3235  159.7421 C.ar    1  UNL1        0.0091
      5 C         142.4040  139.2034  161.1080 C.ar    1  UNL1        0.0325
      6 S         143.7600  139.5642  161.6380 S.2     1  UNL1       -0.0868
      7 C         143.7965  139.2130  163.0959 C.ar    1  UNL1        0.0296
      8 C         144.8716  139.3447  164.1335 C.ar    1  UNL1        0.0065
      9 C         144.6132  138.8986  165.5420 C.ar    1  UNL1        0.0005
     10 C         143.2796  138.3206  165.9130 C.ar    1  UNL1        0.0000
     11 C         142.2045  138.1889  164.8754 C.ar    1  UNL1        0.0006
     12 C         142.4629  138.6350  163.4669 C.ar    1  UNL1        0.0094
     13 C         141.6023  138.6291  162.2383 C.ar    1  UNL1        0.0404
     14 C         142.5973  139.8977  158.6119 C.ar    1  UNL1        0.0352
     15 C         142.9177  141.3630  158.5881 C.ar    1  UNL1        0.0031
     16 C         143.7193  141.9373  157.4579 C.ar    1  UNL1        0.0003
     17 C         144.2006  141.0463  156.3513 C.ar    1  UNL1        0.0062
     18 C         143.8803  139.5811  156.3750 C.ar    1  UNL1        0.0736
     19 C         144.3616  138.6902  155.2684 C.ar    1  UNL1        0.2030
     20 O         145.1633  139.2644  154.1381 O.2     1  UNL1       -0.2863
     21 C         144.0413  137.2250  155.2921 C.ar    1  UNL1        0.0955
     22 C         143.2396  136.6507  156.4224 C.ar    1  UNL1        0.2024
     23 O         142.7582  137.5416  157.5290 O.2     1  UNL1       -0.4398
     24 C         143.0786  139.0068  157.5053 C.ar    1  UNL1        0.1498
     25 N         142.9192  135.1855  156.4461 N.pl3   1  UNL1       -0.2742
     26 C         143.6539  134.2722  157.3819 C.3     1  UNL1        0.1257
     27 C         143.3336  132.8070  157.4056 C.3     1  UNL1        0.1637
     28 O         142.2786  132.2551  156.4934 O.3     1  UNL1       -0.3501
     29 C         141.5438  133.1684  155.5575 C.3     1  UNL1        0.1637
     30 C         141.8641  134.6336  155.5338 C.3     1  UNL1        0.1257
     31 O         139.3905  137.6007  163.1330 O.3     1  UNL1       -0.4739
     32 C         138.4944  138.4891  163.9440 C.3     1  UNL1        0.2226
     33 C         138.8749  139.9201  164.1840 C.3     1  UNL1        0.1201
     34 C         141.2041  143.0199  169.8600 C.3     1  UNL1        0.0948
     35 C         140.4880  141.7145  169.6775 C.2     1  UNL1        0.2262
     36 O         140.1751  140.8578  170.8684 O.2     1  UNL1       -0.2749
     37 N         140.0847  141.2659  168.3041 N.am    1  UNL1       -0.2767
     38 C         140.3976  142.1227  167.1133 C.3     1  UNL1        0.1107
     39 C         139.9943  141.6740  165.7399 C.3     1  UNL1        0.0940
     40 N         139.2782  140.3687  165.5574 N.3     1  UNL1       -0.2666
     41 C         138.9653  139.5119  166.7482 C.3     1  UNL1        0.0940
     42 C         139.3686  139.9605  168.1216 C.3     1  UNL1        0.1107
@<TRIPOS>BOND
     1    34    35    1
     2    35    36    2
     3    35    37   am
     4    37    38    1
     5    38    39    1
     6    39    40    1
     7    40    33    1
     8    33    32    1
     9    32    31    1
    10    31     1    1
    11     1     2   ar
    12     2     3   ar
    13     3     4   ar
    14     4    14    1
    15    14    15   ar
    16    15    16   ar
    17    16    17   ar
    18    17    18   ar
    19    18    19   ar
    20    19    20    2
    21    19    21   ar
    22    21    22   ar
    23    22    25    1
    24    25    26    1
    25    26    27    1
    26    27    28    1
    27    28    29    1
    28    29    30    1
    29    22    23   ar
    30    23    24   ar
    31     4     5   ar
    32     5     6   ar
    33     6     7   ar
    34     7     8   ar
    35     8     9   ar
    36     9    10   ar
    37    10    11   ar
    38    11    12   ar
    39    12    13   ar
    40    40    41    1
    41    41    42    1
    42    42    37    1
    43    13     1   ar
    44    24    14   ar
    45    13     5   ar
    46    24    18   ar
    47    12     7   ar
    48    30    25    1
@<TRIPOS>MOLECULE
*****
 42 48 0 0 0
SMALL
GASTEIGER

@<TRIPOS>ATOM
      1 C         143.3892  138.9406  161.3795 C.ar    1  UNL1        0.1390
      2 C         143.9629  139.2629  160.0315 C.ar    1  UNL1        0.0369
      3 C         143.0771  139.2676  158.8210 C.ar    1  UNL1        0.0037
      4 C         141.6176  138.9500  158.9585 C.ar    1  UNL1        0.0091
      5 C         141.0439  138.6278  160.3065 C.ar    1  UNL1        0.0325
      6 S         139.6537  138.2779  160.7482 S.2     1  UNL1       -0.0868
      7 C         139.6804  138.0570  162.2316 C.ar    1  UNL1        0.0296
      8 C         138.6056  137.6891  163.2110 C.ar    1  UNL1        0.0065
      9 C         138.9374  137.5346  164.6657 C.ar    1  UNL1        0.0005
     10 C         140.3441  137.7479  165.1408 C.ar    1  UNL1        0.0000
     11 C         141.4189  138.1158  164.1614 C.ar    1  UNL1        0.0006
     12 C         141.0871  138.2703  162.7068 C.ar    1  UNL1        0.0094
     13 C         141.9297  138.6231  161.5170 C.ar    1  UNL1        0.0404
     14 C         140.7317  138.9547  157.7481 C.ar    1  UNL1        0.0352
     15 C         139.7854  140.0952  157.5155 C.ar    1  UNL1        0.0031
     16 C         138.8996  140.1000  156.3051 C.ar    1  UNL1        0.0003
     17 C         138.9600  138.9642  155.3271 C.ar    1  UNL1        0.0062
     18 C         139.9062  137.8238  155.5596 C.ar    1  UNL1        0.0736
     19 C         139.9666  136.6881  154.5816 C.ar    1  UNL1        0.2030
     20 O         139.0808  136.6928  153.3711 O.2     1  UNL1       -0.2863
     21 C         140.9128  135.5476  154.8140 C.ar    1  UNL1        0.0955
     22 C         141.7987  135.5429  156.0246 C.ar    1  UNL1        0.2024
     23 O         141.7383  136.6786  157.0026 O.2     1  UNL1       -0.4398
     24 C         140.7921  137.8191  156.7701 C.ar    1  UNL1        0.1498
     25 N         142.7449  134.4025  156.2570 N.pl3   1  UNL1       -0.2742
     26 C         143.5040  134.3088  157.5473 C.3     1  UNL1        0.1257
     27 C         144.4502  133.1683  157.7798 C.3     1  UNL1        0.1637
     28 O         144.6374  132.1216  156.7219 O.3     1  UNL1       -0.3501
     29 C         143.8784  132.2152  155.4316 C.3     1  UNL1        0.1637
     30 C         142.9321  133.3557  155.1991 C.3     1  UNL1        0.1257
     31 O         144.2752  138.9360  162.5900 O.3     1  UNL1       -0.4739
     32 C         144.2957  140.1214  163.5089 C.3     1  UNL1        0.2226
     33 C         144.0859  141.5008  162.9582 C.3     1  UNL1        0.1201
     34 C         138.5196  144.8429  165.2158 C.3     1  UNL1        0.0948
     35 C         138.8687  144.3262  163.8516 C.2     1  UNL1        0.2262
     36 O         137.9135  144.5159  162.7106 O.2     1  UNL1       -0.2749
     37 N         140.1730  143.6199  163.6282 N.am    1  UNL1       -0.2767
     38 C         141.1282  143.4302  164.7692 C.3     1  UNL1        0.1107
     39 C         142.4325  142.7238  164.5458 C.3     1  UNL1        0.0940
     40 N         142.7816  142.2071  163.1815 N.3     1  UNL1       -0.2666
     41 C         141.8265  142.3968  162.0406 C.3     1  UNL1        0.0940
     42 C         140.5222  143.1032  162.2639 C.3     1  UNL1        0.1107
@<TRIPOS>BOND
     1    34    35    1
     2    35    36    2
     3    35    37   am
     4    37    38    1
     5    38    39    1
     6    39    40    1
     7    40    33    1
     8    33    32    1
     9    32    31    1
    10    31     1    1
    11     1     2   ar
    12     2     3   ar
    13     3     4   ar
    14     4    14    1
    15    14    15   ar
    16    15    16   ar
    17    16    17   ar
    18    17    18   ar
    19    18    19   ar
    20    19    20    2
    21    19    21   ar
    22    21    22   ar
    23    22    25    1
    24    25    26    1
    25    26    27    1
    26    27    28    1
    27    28    29    1
    28    29    30    1
    29    22    23   ar
    30    23    24   ar
    31     4     5   ar
    32     5     6   ar
    33     6     7   ar
    34     7     8   ar
    35     8     9   ar
    36     9    10   ar
    37    10    11   ar
    38    11    12   ar
    39    12    13   ar
    40    40    41    1
    41    41    42    1
    42    42    37    1
    43    13     1   ar
    44    24    14   ar
    45    13     5   ar
    46    24    18   ar
    47    12     7   ar
    48    30    25    1
@<TRIPOS>MOLECULE
*****
 42 48 0 0 0
SMALL
GASTEIGER

@<TRIPOS>ATOM
      1 C         139.7769  137.8894  162.9218 C.ar    1  UNL1        0.1390
      2 C         138.9362  137.9043  161.6796 C.ar    1  UNL1        0.0369
      3 C         139.5242  138.3728  160.3816 C.ar    1  UNL1        0.0037
      4 C         140.9529  138.8262  160.3258 C.ar    1  UNL1        0.0091
      5 C         141.7936  138.8113  161.5680 C.ar    1  UNL1        0.0325
      6 S         143.2214  139.1968  161.8184 S.2     1  UNL1       -0.0868
      7 C         143.5159  138.9666  163.2711 C.ar    1  UNL1        0.0296
      8 C         144.7574  139.1694  164.0880 C.ar    1  UNL1        0.0065
      9 C         144.7531  138.8445  165.5523 C.ar    1  UNL1        0.0005
     10 C         143.5073  138.3167  166.1998 C.ar    1  UNL1        0.0000
     11 C         142.2657  138.1139  165.3829 C.ar    1  UNL1        0.0006
     12 C         142.2700  138.4388  163.9186 C.ar    1  UNL1        0.0094
     13 C         141.2056  138.3428  162.8660 C.ar    1  UNL1        0.0404
     14 C         141.5410  139.2947  159.0278 C.ar    1  UNL1        0.0352
     15 C         141.8944  138.2998  157.9621 C.ar    1  UNL1        0.0031
     16 C         142.4824  138.7682  156.6642 C.ar    1  UNL1        0.0003
     17 C         142.7170  140.2314  156.4318 C.ar    1  UNL1        0.0062
     18 C         142.3636  141.2262  157.4973 C.ar    1  UNL1        0.0736
     19 C         142.5982  142.6894  157.2649 C.ar    1  UNL1        0.2030
     20 O         143.1862  143.1578  155.9669 O.2     1  UNL1       -0.2863
     21 C         142.2448  143.6842  158.3305 C.ar    1  UNL1        0.0955
     22 C         141.6568  143.2158  159.6286 C.ar    1  UNL1        0.2024
     23 O         141.4221  141.7526  159.8610 O.2     1  UNL1       -0.4398
     24 C         141.7756  140.7578  158.7954 C.ar    1  UNL1        0.1498
     25 N         141.3033  144.2106  160.6942 N.pl3   1  UNL1       -0.2742
     26 C         142.0520  144.2152  161.9939 C.3     1  UNL1        0.1257
     27 C         141.6986  145.2100  163.0595 C.3     1  UNL1        0.1637
     28 O         140.5965  146.2001  162.8253 O.3     1  UNL1       -0.3501
     29 C         139.8478  146.1955  161.5256 C.3     1  UNL1        0.1637
     30 C         140.2012  145.2008  160.4600 C.3     1  UNL1        0.1257
     31 O         139.1888  137.4209  164.2198 O.3     1  UNL1       -0.4739
     32 C         138.5005  138.3973  165.1270 C.3     1  UNL1        0.2226
     33 C         138.9416  139.8306  165.1590 C.3     1  UNL1        0.1201
     34 C         141.5460  143.5912  170.2898 C.3     1  UNL1        0.0948
     35 C         140.8270  142.2749  170.3040 C.2     1  UNL1        0.2262
     36 O         140.5793  141.5696  171.6045 O.2     1  UNL1       -0.2749
     37 N         140.3556  141.6638  169.0178 N.am    1  UNL1       -0.2767
     38 C         140.6034  142.3691  167.7173 C.3     1  UNL1        0.1107
     39 C         140.1320  141.7580  166.4311 C.3     1  UNL1        0.0940
     40 N         139.4129  140.4416  166.4453 N.3     1  UNL1       -0.2666
     41 C         139.1652  139.7363  167.7458 C.3     1  UNL1        0.0940
     42 C         139.6365  140.3474  169.0320 C.3     1  UNL1        0.1107
@<TRIPOS>BOND
     1    34    35    1
     2    35    36    2
     3    35    37   am
     4    37    38    1
     5    38    39    1
     6    39    40    1
     7    40    33    1
     8    33    32    1
     9    32    31    1
    10    31     1    1
    11     1     2   ar
    12     2     3   ar
    13     3     4   ar
    14     4    14    1
    15    14    15   ar
    16    15    16   ar
    17    16    17   ar
    18    17    18   ar
    19    18    19   ar
    20    19    20    2
    21    19    21   ar
    22    21    22   ar
    23    22    25    1
    24    25    26    1
    25    26    27    1
    26    27    28    1
    27    28    29    1
    28    29    30    1
    29    22    23   ar
    30    23    24   ar
    31     4     5   ar
    32     5     6   ar
    33     6     7   ar
    34     7     8   ar
    35     8     9   ar
    36     9    10   ar
    37    10    11   ar
    38    11    12   ar
    39    12    13   ar
    40    40    41    1
    41    41    42    1
    42    42    37    1
    43    13     1   ar
    44    24    14   ar
    45    13     5   ar
    46    24    18   ar
    47    12     7   ar
    48    30    25    1
@<TRIPOS>MOLECULE
*****
 42 48 0 0 0
SMALL
GASTEIGER

@<TRIPOS>ATOM
      1 C         138.2189  140.3194  164.9681 C.ar    1  UNL1        0.1390
      2 C         137.4186  140.6412  163.7408 C.ar    1  UNL1        0.0369
      3 C         137.8257  141.7836  162.8582 C.ar    1  UNL1        0.0037
      4 C         139.0331  142.6043  163.2027 C.ar    1  UNL1        0.0091
      5 C         139.8333  142.2825  164.4299 C.ar    1  UNL1        0.0325
      6 S         141.0615  142.9095  165.0203 S.2     1  UNL1       -0.0868
      7 C         141.4135  142.1546  166.2678 C.ar    1  UNL1        0.0296
      8 C         142.5236  142.3217  167.2625 C.ar    1  UNL1        0.0065
      9 C         142.6231  141.3952  168.4379 C.ar    1  UNL1        0.0005
     10 C         141.6125  140.3016  168.6186 C.ar    1  UNL1        0.0000
     11 C         140.5023  140.1346  167.6239 C.ar    1  UNL1        0.0006
     12 C         140.4028  141.0610  166.4485 C.ar    1  UNL1        0.0094
     13 C         139.4262  141.1401  165.3126 C.ar    1  UNL1        0.0404
     14 C         139.4402  143.7467  162.3200 C.ar    1  UNL1        0.0352
     15 C         139.2306  145.1598  162.7777 C.ar    1  UNL1        0.0031
     16 C         139.6376  146.3022  161.8951 C.ar    1  UNL1        0.0003
     17 C         140.2543  146.0316  160.5547 C.ar    1  UNL1        0.0062
     18 C         140.4639  144.6186  160.0971 C.ar    1  UNL1        0.0736
     19 C         141.0806  144.3481  158.7567 C.ar    1  UNL1        0.2030
     20 O         141.4877  145.4905  157.8740 O.2     1  UNL1       -0.2863
     21 C         141.2902  142.9351  158.2990 C.ar    1  UNL1        0.0955
     22 C         140.8831  141.7926  159.1817 C.ar    1  UNL1        0.2024
     23 O         140.2664  142.0631  160.5221 O.2     1  UNL1       -0.4398
     24 C         140.0568  143.4761  160.9798 C.ar    1  UNL1        0.1498
     25 N         141.0927  140.3796  158.7241 N.pl3   1  UNL1       -0.2742
     26 C         142.4733  139.7936  158.7073 C.3     1  UNL1        0.1257
     27 C         142.6829  138.3806  158.2496 C.3     1  UNL1        0.1637
     28 O         141.5118  137.5536  157.8087 O.3     1  UNL1       -0.3501
     29 C         140.1311  138.1395  157.8255 C.3     1  UNL1        0.1637
     30 C         139.9215  139.5525  158.2832 C.3     1  UNL1        0.1257
     31 O         137.8117  139.1770  165.8508 O.3     1  UNL1       -0.4739
     32 C         138.4453  137.8290  165.6729 C.3     1  UNL1        0.2226
     33 C         139.1484  137.4942  164.3909 C.3     1  UNL1        0.1201
     34 C         144.4940  140.9038  161.7358 C.3     1  UNL1        0.0948
     35 C         144.3463  140.1664  163.0337 C.2     1  UNL1        0.2262
     36 O         145.4979  140.0972  163.9923 O.2     1  UNL1       -0.2749
     37 N         143.0468  139.4984  163.3729 N.am    1  UNL1       -0.2767
     38 C         141.8952  139.5677  162.4143 C.3     1  UNL1        0.1107
     39 C         140.5957  138.8996  162.7536 C.3     1  UNL1        0.0940
     40 N         140.4479  138.1623  164.0516 N.3     1  UNL1       -0.2666
     41 C         141.5995  138.0930  165.0102 C.3     1  UNL1        0.0940
     42 C         142.8990  138.7610  164.6709 C.3     1  UNL1        0.1107
@<TRIPOS>BOND
     1    34    35    1
     2    35    36    2
     3    35    37   am
     4    37    38    1
     5    38    39    1
     6    39    40    1
     7    40    33    1
     8    33    32    1
     9    32    31    1
    10    31     1    1
    11     1     2   ar
    12     2     3   ar
    13     3     4   ar
    14     4    14    1
    15    14    15   ar
    16    15    16   ar
    17    16    17   ar
    18    17    18   ar
    19    18    19   ar
    20    19    20    2
    21    19    21   ar
    22    21    22   ar
    23    22    25    1
    24    25    26    1
    25    26    27    1
    26    27    28    1
    27    28    29    1
    28    29    30    1
    29    22    23   ar
    30    23    24   ar
    31     4     5   ar
    32     5     6   ar
    33     6     7   ar
    34     7     8   ar
    35     8     9   ar
    36     9    10   ar
    37    10    11   ar
    38    11    12   ar
    39    12    13   ar
    40    40    41    1
    41    41    42    1
    42    42    37    1
    43    13     1   ar
    44    24    14   ar
    45    13     5   ar
    46    24    18   ar
    47    12     7   ar
    48    30    25    1
@<TRIPOS>MOLECULE
*****
 42 48 0 0 0
SMALL
GASTEIGER

@<TRIPOS>ATOM
      1 C         143.3573  139.1998  161.0765 C.ar    1  UNL1        0.1390
      2 C         143.8976  139.5307  159.7169 C.ar    1  UNL1        0.0369
      3 C         142.9991  139.4686  158.5173 C.ar    1  UNL1        0.0037
      4 C         141.5604  139.0757  158.6774 C.ar    1  UNL1        0.0091
      5 C         141.0201  138.7449  160.0371 C.ar    1  UNL1        0.0325
      6 S         139.6558  138.3283  160.5010 S.2     1  UNL1       -0.0868
      7 C         139.7111  138.1329  161.9872 C.ar    1  UNL1        0.0296
      8 C         138.6687  137.7238  162.9851 C.ar    1  UNL1        0.0065
      9 C         139.0248  137.6105  164.4378 C.ar    1  UNL1        0.0005
     10 C         140.4233  137.9064  164.8925 C.ar    1  UNL1        0.0000
     11 C         141.4657  138.3154  163.8945 C.ar    1  UNL1        0.0006
     12 C         141.1096  138.4287  162.4418 C.ar    1  UNL1        0.0094
     13 C         141.9186  138.8069  161.2367 C.ar    1  UNL1        0.0404
     14 C         140.6619  139.0137  157.4779 C.ar    1  UNL1        0.0352
     15 C         139.7016  140.1324  157.2014 C.ar    1  UNL1        0.0031
     16 C         138.8031  140.0704  156.0019 C.ar    1  UNL1        0.0003
     17 C         138.8650  138.8897  155.0788 C.ar    1  UNL1        0.0062
     18 C         139.8252  137.7710  155.3553 C.ar    1  UNL1        0.0736
     19 C         139.8871  136.5903  154.4322 C.ar    1  UNL1        0.2030
     20 O         138.9886  136.5282  153.2326 O.2     1  UNL1       -0.2863
     21 C         140.8473  135.4716  154.7086 C.ar    1  UNL1        0.0955
     22 C         141.7459  135.5336  155.9082 C.ar    1  UNL1        0.2024
     23 O         141.6840  136.7143  156.8313 O.2     1  UNL1       -0.4398
     24 C         140.7238  137.8330  156.5549 C.ar    1  UNL1        0.1498
     25 N         142.7061  134.4150  156.1846 N.pl3   1  UNL1       -0.2742
     26 C         142.9178  133.3383  155.1620 C.3     1  UNL1        0.1257
     27 C         143.8781  132.2196  155.4384 C.3     1  UNL1        0.1637
     28 O         144.6267  132.1776  156.7375 O.3     1  UNL1       -0.3501
     29 C         144.4151  133.2543  157.7602 C.3     1  UNL1        0.1637
     30 C         143.4548  134.3730  157.4838 C.3     1  UNL1        0.1257
     31 O         144.2559  139.2619  162.2761 O.3     1  UNL1       -0.4739
     32 C         144.3185  140.5124  163.1022 C.3     1  UNL1        0.2226
     33 C         144.6986  141.8151  162.4632 C.3     1  UNL1        0.1201
     34 C         140.3084  145.5625  158.7305 C.3     1  UNL1        0.0948
     35 C         140.4499  145.4063  160.2156 C.2     1  UNL1        0.2262
     36 O         139.5292  146.1480  161.1389 O.2     1  UNL1       -0.2749
     37 N         141.5121  144.5085  160.7775 N.am    1  UNL1       -0.2767
     38 C         142.4327  143.7669  159.8542 C.3     1  UNL1        0.1107
     39 C         143.4949  142.8691  160.4161 C.3     1  UNL1        0.0940
     40 N         143.6365  142.7129  161.9013 N.3     1  UNL1       -0.2666
     41 C         142.7158  143.4545  162.8246 C.3     1  UNL1        0.0940
     42 C         141.6536  144.3523  162.2627 C.3     1  UNL1        0.1107
@<TRIPOS>BOND
     1    34    35    1
     2    35    36    2
     3    35    37   am
     4    37    38    1
     5    38    39    1
     6    39    40    1
     7    40    33    1
     8    33    32    1
     9    32    31    1
    10    31     1    1
    11     1     2   ar
    12     2     3   ar
    13     3     4   ar
    14     4    14    1
    15    14    15   ar
    16    15    16   ar
    17    16    17   ar
    18    17    18   ar
    19    18    19   ar
    20    19    20    2
    21    19    21   ar
    22    21    22   ar
    23    22    25    1
    24    25    26    1
    25    26    27    1
    26    27    28    1
    27    28    29    1
    28    29    30    1
    29    22    23   ar
    30    23    24   ar
    31     4     5   ar
    32     5     6   ar
    33     6     7   ar
    34     7     8   ar
    35     8     9   ar
    36     9    10   ar
    37    10    11   ar
    38    11    12   ar
    39    12    13   ar
    40    40    41    1
    41    41    42    1
    42    42    37    1
    43    13     1   ar
    44    24    14   ar
    45    13     5   ar
    46    24    18   ar
    47    12     7   ar
    48    30    25    1
@<TRIPOS>MOLECULE
*****
 42 48 0 0 0
SMALL
GASTEIGER

@<TRIPOS>ATOM
      1 C         143.7847  143.6221  163.9765 C.ar    1  UNL1        0.1390
      2 C         144.4938  142.8761  165.0677 C.ar    1  UNL1        0.0369
      3 C         143.7226  142.3565  166.2447 C.ar    1  UNL1        0.0037
      4 C         142.2423  142.5829  166.3305 C.ar    1  UNL1        0.0091
      5 C         141.5332  143.3289  165.2393 C.ar    1  UNL1        0.0325
      6 S         140.0927  143.7023  165.0509 S.2     1  UNL1       -0.0868
      7 C         139.9736  144.4527  163.7575 C.ar    1  UNL1        0.0296
      8 C         138.7971  145.0653  163.0573 C.ar    1  UNL1        0.0065
      9 C         138.9875  145.7683  161.7460 C.ar    1  UNL1        0.0005
     10 C         140.3544  145.8586  161.1350 C.ar    1  UNL1        0.0000
     11 C         141.5309  145.2460  161.8352 C.ar    1  UNL1        0.0006
     12 C         141.3405  144.5430  163.1465 C.ar    1  UNL1        0.0094
     13 C         142.3044  143.8485  164.0623 C.ar    1  UNL1        0.0404
     14 C         141.4711  142.0634  167.5075 C.ar    1  UNL1        0.0352
     15 C         141.8210  142.5183  168.8934 C.ar    1  UNL1        0.0031
     16 C         141.0498  141.9988  170.0704 C.ar    1  UNL1        0.0003
     17 C         139.9288  141.0243  169.8615 C.ar    1  UNL1        0.0062
     18 C         139.5790  140.5693  168.4757 C.ar    1  UNL1        0.0736
     19 C         138.4579  139.5948  168.2668 C.ar    1  UNL1        0.2030
     20 O         137.6867  139.0752  169.4438 O.2     1  UNL1       -0.2863
     21 C         138.1081  139.1399  166.8810 C.ar    1  UNL1        0.0955
     22 C         138.8793  139.6594  165.7039 C.ar    1  UNL1        0.2024
     23 O         140.0003  140.6339  165.9128 O.2     1  UNL1       -0.4398
     24 C         140.3502  141.0889  167.2986 C.ar    1  UNL1        0.1498
     25 N         138.5294  139.2045  164.3181 N.pl3   1  UNL1       -0.2742
     26 C         138.7827  137.7839  163.9087 C.3     1  UNL1        0.1257
     27 C         138.4329  137.3289  162.5229 C.3     1  UNL1        0.1637
     28 O         137.8297  138.2945  161.5464 O.3     1  UNL1       -0.3501
     29 C         137.5764  139.7152  161.9557 C.3     1  UNL1        0.1637
     30 C         137.9263  140.1702  163.3415 C.3     1  UNL1        0.1257
     31 O         144.5560  144.1416  162.7995 O.3     1  UNL1       -0.4739
     32 C         144.7591  143.2732  161.5935 C.3     1  UNL1        0.2226
     33 C         144.4911  141.7997  161.6767 C.3     1  UNL1        0.1201
     34 C         138.6291  140.2335  158.4465 C.3     1  UNL1        0.0948
     35 C         139.8650  139.4186  158.6883 C.2     1  UNL1        0.2262
     36 O         139.9444  138.0085  158.1832 O.2     1  UNL1       -0.2749
     37 N         141.0215  140.0139  159.4354 N.am    1  UNL1       -0.2767
     38 C         140.9421  141.4241  159.9406 C.3     1  UNL1        0.1107
     39 C         142.0986  142.0193  160.6877 C.3     1  UNL1        0.0940
     40 N         143.3346  141.2044  160.9296 N.3     1  UNL1       -0.2666
     41 C         143.4140  139.7943  160.4244 C.3     1  UNL1        0.0940
     42 C         142.2575  139.1990  159.6774 C.3     1  UNL1        0.1107
@<TRIPOS>BOND
     1    34    35    1
     2    35    36    2
     3    35    37   am
     4    37    38    1
     5    38    39    1
     6    39    40    1
     7    40    33    1
     8    33    32    1
     9    32    31    1
    10    31     1    1
    11     1     2   ar
    12     2     3   ar
    13     3     4   ar
    14     4    14    1
    15    14    15   ar
    16    15    16   ar
    17    16    17   ar
    18    17    18   ar
    19    18    19   ar
    20    19    20    2
    21    19    21   ar
    22    21    22   ar
    23    22    25    1
    24    25    26    1
    25    26    27    1
    26    27    28    1
    27    28    29    1
    28    29    30    1
    29    22    23   ar
    30    23    24   ar
    31     4     5   ar
    32     5     6   ar
    33     6     7   ar
    34     7     8   ar
    35     8     9   ar
    36     9    10   ar
    37    10    11   ar
    38    11    12   ar
    39    12    13   ar
    40    40    41    1
    41    41    42    1
    42    42    37    1
    43    13     1   ar
    44    24    14   ar
    45    13     5   ar
    46    24    18   ar
    47    12     7   ar
    48    30    25    1
@<TRIPOS>MOLECULE
*****
 42 48 0 0 0
SMALL
GASTEIGER

@<TRIPOS>ATOM
      1 C         140.9043  145.2132  160.2443 C.ar    1  UNL1        0.1390
      2 C         140.3957  145.0392  158.8439 C.ar    1  UNL1        0.0369
      3 C         141.0182  144.0153  157.9416 C.ar    1  UNL1        0.0037
      4 C         142.1493  143.1654  158.4398 C.ar    1  UNL1        0.0091
      5 C         142.6579  143.3394  159.8402 C.ar    1  UNL1        0.0325
      6 S         143.7506  142.6519  160.6039 S.2     1  UNL1       -0.0868
      7 C         143.8035  143.2509  161.9781 C.ar    1  UNL1        0.0296
      8 C         144.6799  142.9698  163.1625 C.ar    1  UNL1        0.0065
      9 C         144.4962  143.7464  164.4325 C.ar    1  UNL1        0.0005
     10 C         143.4361  144.8042  164.5181 C.ar    1  UNL1        0.0000
     11 C         142.5597  145.0853  163.3337 C.ar    1  UNL1        0.0006
     12 C         142.7434  144.3086  162.0637 C.ar    1  UNL1        0.0094
     13 C         142.0354  144.3633  160.7424 C.ar    1  UNL1        0.0404
     14 C         142.7718  142.1415  157.5376 C.ar    1  UNL1        0.0352
     15 C         143.5462  142.5782  156.3293 C.ar    1  UNL1        0.0031
     16 C         144.1687  141.5543  155.4271 C.ar    1  UNL1        0.0003
     17 C         144.0169  140.0937  155.7330 C.ar    1  UNL1        0.0062
     18 C         143.2426  139.6570  156.9411 C.ar    1  UNL1        0.0736
     19 C         143.0908  138.1964  157.2471 C.ar    1  UNL1        0.2030
     20 O         143.7133  137.1725  156.3448 O.2     1  UNL1       -0.2863
     21 C         142.3165  137.7597  158.4552 C.ar    1  UNL1        0.0955
     22 C         141.6939  138.7836  159.3576 C.ar    1  UNL1        0.2024
     23 O         141.8457  140.2443  159.0516 O.2     1  UNL1       -0.4398
     24 C         142.6200  140.6810  157.8435 C.ar    1  UNL1        0.1498
     25 N         140.9196  138.3469  160.5657 N.pl3   1  UNL1       -0.2742
     26 C         141.6420  137.8123  161.7666 C.3     1  UNL1        0.1257
     27 C         140.8676  137.3756  162.9748 C.3     1  UNL1        0.1637
     28 O         139.3709  137.4735  162.9821 O.3     1  UNL1       -0.3501
     29 C         138.6485  138.0081  161.7811 C.3     1  UNL1        0.1637
     30 C         139.4228  138.4448  160.5730 C.3     1  UNL1        0.1257
     31 O         140.2817  146.2372  161.1465 O.3     1  UNL1       -0.4739
     32 C         139.3076  145.8112  162.2047 C.3     1  UNL1        0.2226
     33 C         138.9095  144.3697  162.3209 C.3     1  UNL1        0.1201
     34 C         140.4308  139.8086  167.2333 C.3     1  UNL1        0.0948
     35 C         140.2101  141.2906  167.3037 C.2     1  UNL1        0.2262
     36 O         140.3147  142.0028  168.6196 O.2     1  UNL1       -0.2749
     37 N         139.8850  142.0604  166.0580 N.am    1  UNL1       -0.2767
     38 C         139.7805  141.3481  164.7420 C.3     1  UNL1        0.1107
     39 C         139.4553  142.1179  163.4963 C.3     1  UNL1        0.0940
     40 N         139.2347  143.6000  163.5666 N.3     1  UNL1       -0.2666
     41 C         139.3392  144.3122  164.8826 C.3     1  UNL1        0.0940
     42 C         139.6644  143.5424  166.1283 C.3     1  UNL1        0.1107
@<TRIPOS>BOND
     1    34    35    1
     2    35    36    2
     3    35    37   am
     4    37    38    1
     5    38    39    1
     6    39    40    1
     7    40    33    1
     8    33    32    1
     9    32    31    1
    10    31     1    1
    11     1     2   ar
    12     2     3   ar
    13     3     4   ar
    14     4    14    1
    15    14    15   ar
    16    15    16   ar
    17    16    17   ar
    18    17    18   ar
    19    18    19   ar
    20    19    20    2
    21    19    21   ar
    22    21    22   ar
    23    22    25    1
    24    25    26    1
    25    26    27    1
    26    27    28    1
    27    28    29    1
    28    29    30    1
    29    22    23   ar
    30    23    24   ar
    31     4     5   ar
    32     5     6   ar
    33     6     7   ar
    34     7     8   ar
    35     8     9   ar
    36     9    10   ar
    37    10    11   ar
    38    11    12   ar
    39    12    13   ar
    40    40    41    1
    41    41    42    1
    42    42    37    1
    43    13     1   ar
    44    24    14   ar
    45    13     5   ar
    46    24    18   ar
    47    12     7   ar
    48    30    25    1
@<TRIPOS>MOLECULE
*****
 42 48 0 0 0
SMALL
GASTEIGER

@<TRIPOS>ATOM
      1 C         142.0313  138.1735  158.9664 C.ar    1  UNL1        0.1390
      2 C         142.7628  137.5860  160.1367 C.ar    1  UNL1        0.0369
      3 C         142.1663  137.6654  161.5107 C.ar    1  UNL1        0.0037
      4 C         140.8383  138.3324  161.7144 C.ar    1  UNL1        0.0091
      5 C         140.1068  138.9200  160.5440 C.ar    1  UNL1        0.0325
      6 S         138.7916  139.6334  160.4377 S.2     1  UNL1       -0.0868
      7 C         138.5753  139.9949  158.9981 C.ar    1  UNL1        0.0296
      8 C         137.4551  140.7069  158.2994 C.ar    1  UNL1        0.0065
      9 C         137.5165  140.9289  156.8172 C.ar    1  UNL1        0.0005
     10 C         138.6980  140.4389  156.0337 C.ar    1  UNL1        0.0000
     11 C         139.8182  139.7268  156.7324 C.ar    1  UNL1        0.0006
     12 C         139.7568  139.5048  158.2146 C.ar    1  UNL1        0.0094
     13 C         140.7033  138.8405  159.1700 C.ar    1  UNL1        0.0404
     14 C         140.2418  138.4119  163.0883 C.ar    1  UNL1        0.0352
     15 C         139.3681  137.3014  163.5921 C.ar    1  UNL1        0.0031
     16 C         138.7716  137.3808  164.9660 C.ar    1  UNL1        0.0003
     17 C         139.0487  138.5707  165.8363 C.ar    1  UNL1        0.0062
     18 C         139.9223  139.6811  165.3326 C.ar    1  UNL1        0.0736
     19 C         140.1994  140.8710  166.2029 C.ar    1  UNL1        0.2030
     20 O         139.6029  140.9505  167.5769 O.2     1  UNL1       -0.2863
     21 C         141.0730  141.9814  165.6993 C.ar    1  UNL1        0.0955
     22 C         141.6696  141.9020  164.3252 C.ar    1  UNL1        0.2024
     23 O         141.3925  140.7121  163.4549 O.2     1  UNL1       -0.4398
     24 C         140.5189  139.6017  163.9586 C.ar    1  UNL1        0.1498
     25 N         142.5432  143.0125  163.8215 N.pl3   1  UNL1       -0.2742
     26 C         143.6594  142.7136  162.8652 C.3     1  UNL1        0.1257
     27 C         144.5330  143.8241  162.3615 C.3     1  UNL1        0.1637
     28 O         144.2904  145.2333  162.8142 O.3     1  UNL1       -0.3501
     29 C         143.1741  145.5322  163.7705 C.3     1  UNL1        0.1637
     30 C         142.3005  144.4218  164.2742 C.3     1  UNL1        0.1257
     31 O         142.6279  138.0940  157.5923 O.3     1  UNL1       -0.4739
     32 C         142.4148  136.8700  156.7519 C.3     1  UNL1        0.2226
     33 C         143.2847  135.6640  156.9493 C.3     1  UNL1        0.1201
     34 C         140.2697  130.1303  154.2038 C.3     1  UNL1        0.0948
     35 C         141.3358  130.2490  155.2523 C.2     1  UNL1        0.2262
     36 O         141.9148  129.0140  155.8765 O.2     1  UNL1       -0.2749
     37 N         141.8230  131.6028  155.6765 N.am    1  UNL1       -0.2767
     38 C         141.2441  132.8378  155.0523 C.3     1  UNL1        0.1107
     39 C         141.7313  134.1915  155.4766 C.3     1  UNL1        0.0940
     40 N         142.7975  134.3103  156.5251 N.3     1  UNL1       -0.2666
     41 C         143.3764  133.0753  157.1493 C.3     1  UNL1        0.0940
     42 C         142.8892  131.7216  156.7250 C.3     1  UNL1        0.1107
@<TRIPOS>BOND
     1    34    35    1
     2    35    36    2
     3    35    37   am
     4    37    38    1
     5    38    39    1
     6    39    40    1
     7    40    33    1
     8    33    32    1
     9    32    31    1
    10    31     1    1
    11     1     2   ar
    12     2     3   ar
    13     3     4   ar
    14     4    14    1
    15    14    15   ar
    16    15    16   ar
    17    16    17   ar
    18    17    18   ar
    19    18    19   ar
    20    19    20    2
    21    19    21   ar
    22    21    22   ar
    23    22    25    1
    24    25    26    1
    25    26    27    1
    26    27    28    1
    27    28    29    1
    28    29    30    1
    29    22    23   ar
    30    23    24   ar
    31     4     5   ar
    32     5     6   ar
    33     6     7   ar
    34     7     8   ar
    35     8     9   ar
    36     9    10   ar
    37    10    11   ar
    38    11    12   ar
    39    12    13   ar
    40    40    41    1
    41    41    42    1
    42    42    37    1
    43    13     1   ar
    44    24    14   ar
    45    13     5   ar
    46    24    18   ar
    47    12     7   ar
    48    30    25    1
