@<TRIPOS>MOLECULE
*****
 35 38 0 0 0
SMALL
GASTEIGER

@<TRIPOS>ATOM
      1 C         140.7262  141.6770  162.3395 C.ar    1  UNL1        0.0901
      2 C         139.7880  140.6457  161.7861 C.ar    1  UNL1        0.0212
      3 C         138.9471  139.8213  162.7152 C.ar    1  UNL1        0.0754
      4 C         139.0443  140.0282  164.1977 C.ar    1  UNL1        0.0382
      5 C         139.9825  141.0596  164.7511 C.ar    1  UNL1        0.1313
      6 N         140.8235  141.8840  163.8220 N.ar    1  UNL1       -0.2325
      7 N         140.0797  141.2665  166.2335 N.pl3   1  UNL1       -0.2932
      8 C         139.7646  140.1384  167.1706 C.3     1  UNL1        0.0932
      9 C         139.8618  140.3453  168.6531 C.3     1  UNL1        0.0366
     10 C         140.2742  141.6805  169.1985 C.3     1  UNL1        0.0948
     11 C         140.5894  142.8086  168.2615 C.3     1  UNL1        0.0366
     12 C         140.4921  142.6016  166.7790 C.3     1  UNL1        0.0932
     13 C         140.3714  141.8874  170.6809 C.1     1  UNL1        0.0722
     14 N         140.4687  142.0943  172.1634 N.1     1  UNL1       -0.1959
     15 C         138.0089  138.7899  162.1619 C.3     1  UNL1        0.4187
     16 F         137.0707  137.7587  161.6086 F       1  UNL1       -0.1659
     17 F         137.3268  139.8481  161.3464 F       1  UNL1       -0.1659
     18 F         138.6911  137.7319  162.9774 F       1  UNL1       -0.1659
     19 C         141.5672  142.5014  161.4104 C.3     1  UNL1        0.1875
     20 O         142.8730  141.9638  160.9046 O.3     1  UNL1       -0.3470
     21 C         143.5234  140.8017  161.5947 C.3     1  UNL1        0.1467
     22 C         142.8442  137.1895  157.1978 C.3     1  UNL1        0.0896
     23 N         142.9970  137.9290  158.4939 N.3     1  UNL1       -0.2715
     24 C         142.9332  137.1842  159.7944 C.3     1  UNL1        0.0725
     25 C         143.0859  137.9237  161.0904 C.3     1  UNL1        0.0238
     26 C         143.3024  139.4079  161.0861 C.3     1  UNL1        0.0489
     27 C         143.3662  140.1527  159.7856 C.3     1  UNL1        0.0238
     28 C         143.2135  139.4132  158.4896 C.3     1  UNL1        0.0725
     29 C         143.3154  139.1472  162.5632 C.ar    1  UNL1       -0.0202
     30 C         142.2386  138.3094  163.1864 C.ar    1  UNL1       -0.0019
     31 C         142.2515  138.0486  164.6635 C.ar    1  UNL1        0.0293
     32 C         143.3414  138.6256  165.5174 C.ar    1  UNL1        0.1401
     33 F         143.3544  138.3649  166.9945 F       1  UNL1       -0.2042
     34 C         144.4183  139.4634  164.8942 C.ar    1  UNL1        0.0293
     35 C         144.4053  139.7242  163.4171 C.ar    1  UNL1       -0.0019
@<TRIPOS>BOND
     1    22    23    1
     2    23    24    1
     3    24    25    1
     4    25    26    1
     5    26    21    1
     6    21    20    1
     7    20    19    1
     8    19     1    1
     9     1     2   ar
    10     2     3   ar
    11     3    15    1
    12    15    16    1
    13    15    17    1
    14    15    18    1
    15     3     4   ar
    16     4     5   ar
    17     5     7    1
    18     7     8    1
    19     8     9    1
    20     9    10    1
    21    10    13    1
    22    13    14    3
    23    10    11    1
    24    11    12    1
    25     5     6   ar
    26    26    29    1
    27    29    30   ar
    28    30    31   ar
    29    31    32   ar
    30    32    33    1
    31    32    34   ar
    32    34    35   ar
    33    26    27    1
    34    27    28    1
    35    28    23    1
    36     6     1   ar
    37    35    29   ar
    38    12     7    1
@<TRIPOS>MOLECULE
*****
 35 38 0 0 0
SMALL
GASTEIGER

@<TRIPOS>ATOM
      1 C         141.9498  142.0754  163.9667 C.ar    1  UNL1        0.0901
      2 C         141.2178  143.0073  164.8865 C.ar    1  UNL1        0.0212
      3 C         139.8689  143.5370  164.4993 C.ar    1  UNL1        0.0754
      4 C         139.2520  143.1349  163.1925 C.ar    1  UNL1        0.0382
      5 C         139.9840  142.2030  162.2728 C.ar    1  UNL1        0.1313
      6 N         141.3328  141.6733  162.6598 N.ar    1  UNL1       -0.2325
      7 N         139.3670  141.8010  160.9660 N.pl3   1  UNL1       -0.2932
      8 C         139.0722  140.3567  160.6885 C.3     1  UNL1        0.0932
      9 C         138.4553  139.9546  159.3818 C.3     1  UNL1        0.0366
     10 C         138.1331  140.9971  158.3523 C.3     1  UNL1        0.0948
     11 C         138.4279  142.4414  158.6297 C.3     1  UNL1        0.0366
     12 C         139.0449  142.8434  159.9365 C.3     1  UNL1        0.0932
     13 C         137.5162  140.5950  157.0455 C.1     1  UNL1        0.0722
     14 N         136.8992  140.1929  155.7387 N.1     1  UNL1       -0.1959
     15 C         139.1368  144.4688  165.4190 C.3     1  UNL1        0.4187
     16 F         138.4048  145.4007  166.3386 F       1  UNL1       -0.1659
     17 F         138.5739  145.1961  164.2339 F       1  UNL1       -0.1659
     18 F         139.6998  143.7416  166.6040 F       1  UNL1       -0.1659
     19 C         143.2986  141.5456  164.3538 C.3     1  UNL1        0.1875
     20 O         143.4585  140.7515  165.6163 O.3     1  UNL1       -0.3470
     21 C         142.4835  139.6597  165.9440 C.3     1  UNL1        0.1467
     22 C         140.8885  141.4777  171.1394 C.3     1  UNL1        0.0896
     23 N         141.0602  140.9511  169.7454 N.3     1  UNL1       -0.2715
     24 C         139.8684  140.4650  168.9752 C.3     1  UNL1        0.0725
     25 C         140.0401  139.9384  167.5812 C.3     1  UNL1        0.0238
     26 C         141.4036  139.8978  166.9575 C.3     1  UNL1        0.0489
     27 C         142.5954  140.3838  167.7277 C.3     1  UNL1        0.0238
     28 C         142.4237  140.9105  169.1217 C.3     1  UNL1        0.0725
     29 C         140.5868  139.3290  165.8352 C.ar    1  UNL1       -0.0202
     30 C         141.0804  138.1300  165.0812 C.ar    1  UNL1       -0.0019
     31 C         140.2637  137.5612  163.9590 C.ar    1  UNL1        0.0293
     32 C         138.9533  138.1915  163.5909 C.ar    1  UNL1        0.1401
     33 F         138.1364  137.6227  162.4686 F       1  UNL1       -0.2042
     34 C         138.4596  139.3906  164.3449 C.ar    1  UNL1        0.0293
     35 C         139.2764  139.9593  165.4671 C.ar    1  UNL1       -0.0019
@<TRIPOS>BOND
     1    22    23    1
     2    23    24    1
     3    24    25    1
     4    25    26    1
     5    26    21    1
     6    21    20    1
     7    20    19    1
     8    19     1    1
     9     1     2   ar
    10     2     3   ar
    11     3    15    1
    12    15    16    1
    13    15    17    1
    14    15    18    1
    15     3     4   ar
    16     4     5   ar
    17     5     7    1
    18     7     8    1
    19     8     9    1
    20     9    10    1
    21    10    13    1
    22    13    14    3
    23    10    11    1
    24    11    12    1
    25     5     6   ar
    26    26    29    1
    27    29    30   ar
    28    30    31   ar
    29    31    32   ar
    30    32    33    1
    31    32    34   ar
    32    34    35   ar
    33    26    27    1
    34    27    28    1
    35    28    23    1
    36     6     1   ar
    37    35    29   ar
    38    12     7    1
@<TRIPOS>MOLECULE
*****
 35 38 0 0 0
SMALL
GASTEIGER

@<TRIPOS>ATOM
      1 C         141.6923  139.9384  164.1185 C.ar    1  UNL1        0.0901
      2 C         140.7876  139.2063  165.0649 C.ar    1  UNL1        0.0212
      3 C         139.3499  138.9784  164.7028 C.ar    1  UNL1        0.0754
      4 C         138.8170  139.4824  163.3944 C.ar    1  UNL1        0.0382
      5 C         139.7217  140.2144  162.4480 C.ar    1  UNL1        0.1313
      6 N         141.1594  140.4424  162.8100 N.ar    1  UNL1       -0.2325
      7 N         139.1887  140.7184  161.1397 N.pl3   1  UNL1       -0.2932
      8 C         138.2903  139.8491  160.3108 C.3     1  UNL1        0.0932
      9 C         137.7573  140.3531  159.0025 C.3     1  UNL1        0.0366
     10 C         138.1228  141.7266  158.5229 C.3     1  UNL1        0.0948
     11 C         139.0212  142.5961  159.3517 C.3     1  UNL1        0.0366
     12 C         139.5542  142.0920  160.6601 C.3     1  UNL1        0.0932
     13 C         137.5898  142.2306  157.2146 C.1     1  UNL1        0.0722
     14 N         137.0568  142.7347  155.9061 N.1     1  UNL1       -0.1959
     15 C         138.4451  138.2463  165.6492 C.3     1  UNL1        0.4187
     16 F         137.5404  137.5143  166.5955 F       1  UNL1       -0.1659
     17 F         137.7254  139.5272  165.9517 F       1  UNL1       -0.1659
     18 F         139.1649  136.9656  165.3466 F       1  UNL1       -0.1659
     19 C         143.1300  140.1664  164.4805 C.3     1  UNL1        0.1875
     20 O         143.5016  141.2861  165.4069 O.3     1  UNL1       -0.3470
     21 C         142.5814  142.4590  165.5728 C.3     1  UNL1        0.1467
     22 C         141.8253  141.8613  171.2220 C.3     1  UNL1        0.0896
     23 N         141.7806  142.0907  169.7403 N.3     1  UNL1       -0.2715
     24 C         140.5133  142.5642  169.0925 C.3     1  UNL1        0.0725
     25 C         140.4687  142.7936  167.6108 C.3     1  UNL1        0.0238
     26 C         141.6914  142.5495  166.7769 C.3     1  UNL1        0.0489
     27 C         142.9587  142.0761  167.4247 C.3     1  UNL1        0.0238
     28 C         143.0034  141.8466  168.9064 C.3     1  UNL1        0.0725
     29 C         140.7331  142.9915  165.7109 C.ar    1  UNL1       -0.0202
     30 C         141.1904  143.9296  164.6335 C.ar    1  UNL1       -0.0019
     31 C         140.2322  144.3717  163.5675 C.ar    1  UNL1        0.0293
     32 C         138.8167  143.8756  163.5790 C.ar    1  UNL1        0.1401
     33 F         137.8584  144.3176  162.5129 F       1  UNL1       -0.2042
     34 C         138.3593  142.9375  164.6564 C.ar    1  UNL1        0.0293
     35 C         139.3176  142.4955  165.7224 C.ar    1  UNL1       -0.0019
@<TRIPOS>BOND
     1    22    23    1
     2    23    24    1
     3    24    25    1
     4    25    26    1
     5    26    21    1
     6    21    20    1
     7    20    19    1
     8    19     1    1
     9     1     2   ar
    10     2     3   ar
    11     3    15    1
    12    15    16    1
    13    15    17    1
    14    15    18    1
    15     3     4   ar
    16     4     5   ar
    17     5     7    1
    18     7     8    1
    19     8     9    1
    20     9    10    1
    21    10    13    1
    22    13    14    3
    23    10    11    1
    24    11    12    1
    25     5     6   ar
    26    26    29    1
    27    29    30   ar
    28    30    31   ar
    29    31    32   ar
    30    32    33    1
    31    32    34   ar
    32    34    35   ar
    33    26    27    1
    34    27    28    1
    35    28    23    1
    36     6     1   ar
    37    35    29   ar
    38    12     7    1
@<TRIPOS>MOLECULE
*****
 35 38 0 0 0
SMALL
GASTEIGER

@<TRIPOS>ATOM
      1 C         139.3448  138.2409  162.8364 C.ar    1  UNL1        0.0901
      2 C         140.6429  137.9723  162.1343 C.ar    1  UNL1        0.0212
      3 C         141.9427  138.2681  162.8220 C.ar    1  UNL1        0.0754
      4 C         141.9445  138.8324  164.2118 C.ar    1  UNL1        0.0382
      5 C         140.6464  139.1010  164.9139 C.ar    1  UNL1        0.1313
      6 N         139.3466  138.8053  164.2262 N.ar    1  UNL1       -0.2325
      7 N         140.6483  139.6654  166.3037 N.pl3   1  UNL1       -0.2932
      8 C         139.3897  139.6538  167.1196 C.3     1  UNL1        0.0932
      9 C         139.3915  140.2181  168.5094 C.3     1  UNL1        0.0366
     10 C         140.6521  140.7942  169.0832 C.3     1  UNL1        0.0948
     11 C         141.9108  140.8058  168.2673 C.3     1  UNL1        0.0366
     12 C         141.9089  140.2414  166.8775 C.3     1  UNL1        0.0932
     13 C         140.6540  141.3585  170.4730 C.1     1  UNL1        0.0722
     14 N         140.6558  141.9229  171.8627 N.1     1  UNL1       -0.1959
     15 C         143.2408  137.9994  162.1200 C.3     1  UNL1        0.4187
     16 F         144.5389  137.7309  161.4180 F       1  UNL1       -0.1659
     17 F         143.9887  138.6000  163.2733 F       1  UNL1       -0.1659
     18 F         142.4928  137.3989  160.9668 F       1  UNL1       -0.1659
     19 C         138.0449  137.9452  162.1487 C.3     1  UNL1        0.1875
     20 O         137.4345  138.9615  161.2297 O.3     1  UNL1       -0.3470
     21 C         137.5717  140.4242  161.5320 C.3     1  UNL1        0.1467
     22 C         139.8208  141.9623  156.4904 C.3     1  UNL1        0.0896
     23 N         139.3914  141.7301  157.9087 N.3     1  UNL1       -0.2715
     24 C         140.0280  142.5081  159.0220 C.3     1  UNL1        0.0725
     25 C         139.5985  142.2760  160.4403 C.3     1  UNL1        0.0238
     26 C         138.5325  141.2658  160.7454 C.3     1  UNL1        0.0489
     27 C         137.8960  140.4878  159.6321 C.3     1  UNL1        0.0238
     28 C         138.3254  140.7199  158.2138 C.3     1  UNL1        0.0725
     29 C         138.8354  141.7516  162.1319 C.ar    1  UNL1       -0.0202
     30 C         140.2565  141.9861  162.5507 C.ar    1  UNL1       -0.0019
     31 C         140.5595  142.4719  163.9371 C.ar    1  UNL1        0.0293
     32 C         139.4412  142.7231  164.9048 C.ar    1  UNL1        0.1401
     33 F         139.7441  143.2089  166.2913 F       1  UNL1       -0.2042
     34 C         138.0201  142.4886  164.4861 C.ar    1  UNL1        0.0293
     35 C         137.7172  142.0028  163.0996 C.ar    1  UNL1       -0.0019
@<TRIPOS>BOND
     1    22    23    1
     2    23    24    1
     3    24    25    1
     4    25    26    1
     5    26    21    1
     6    21    20    1
     7    20    19    1
     8    19     1    1
     9     1     2   ar
    10     2     3   ar
    11     3    15    1
    12    15    16    1
    13    15    17    1
    14    15    18    1
    15     3     4   ar
    16     4     5   ar
    17     5     7    1
    18     7     8    1
    19     8     9    1
    20     9    10    1
    21    10    13    1
    22    13    14    3
    23    10    11    1
    24    11    12    1
    25     5     6   ar
    26    26    29    1
    27    29    30   ar
    28    30    31   ar
    29    31    32   ar
    30    32    33    1
    31    32    34   ar
    32    34    35   ar
    33    26    27    1
    34    27    28    1
    35    28    23    1
    36     6     1   ar
    37    35    29   ar
    38    12     7    1
@<TRIPOS>MOLECULE
*****
 35 38 0 0 0
SMALL
GASTEIGER

@<TRIPOS>ATOM
      1 C         142.3859  140.0097  162.6686 C.ar    1  UNL1        0.0901
      2 C         142.3003  141.2204  161.7870 C.ar    1  UNL1        0.0212
      3 C         141.9702  142.5580  162.3800 C.ar    1  UNL1        0.0754
      4 C         141.7257  142.6852  163.8544 C.ar    1  UNL1        0.0382
      5 C         141.8113  141.4745  164.7360 C.ar    1  UNL1        0.1313
      6 N         142.1413  140.1368  164.1431 N.ar    1  UNL1       -0.2325
      7 N         141.5667  141.6017  166.2104 N.pl3   1  UNL1       -0.2932
      8 C         142.2208  140.6466  167.1643 C.3     1  UNL1        0.0932
      9 C         141.9763  140.7738  168.6388 C.3     1  UNL1        0.0366
     10 C         141.0776  141.8561  169.1593 C.3     1  UNL1        0.0948
     11 C         140.4235  142.8112  168.2055 C.3     1  UNL1        0.0366
     12 C         140.6680  142.6841  166.7310 C.3     1  UNL1        0.0932
     13 C         140.8331  141.9833  170.6338 C.1     1  UNL1        0.0722
     14 N         140.5885  142.1104  172.1082 N.1     1  UNL1       -0.1959
     15 C         141.8846  143.7687  161.4984 C.3     1  UNL1        0.4187
     16 F         141.7990  144.9793  160.6169 F       1  UNL1       -0.1659
     17 F         141.4103  142.9092  160.3642 F       1  UNL1       -0.1659
     18 F         142.3589  144.6281  162.6327 F       1  UNL1       -0.1659
     19 C         142.7160  138.6720  162.0756 C.3     1  UNL1        0.1875
     20 O         141.6412  137.8564  161.4201 O.3     1  UNL1       -0.3470
     21 C         140.2545  137.8450  161.9918 C.3     1  UNL1        0.1467
     22 C         137.7680  140.5713  157.6070 C.3     1  UNL1        0.0896
     23 N         138.2539  139.9845  158.8991 N.3     1  UNL1       -0.2715
     24 C         137.6122  140.3869  160.1938 C.3     1  UNL1        0.0725
     25 C         138.0981  139.8002  161.4860 C.3     1  UNL1        0.0238
     26 C         139.2256  138.8110  161.4834 C.3     1  UNL1        0.0489
     27 C         139.8673  138.4085  160.1887 C.3     1  UNL1        0.0238
     28 C         139.3814  138.9953  158.8966 C.3     1  UNL1        0.0725
     29 C         138.9412  138.8779  162.9547 C.ar    1  UNL1       -0.0202
     30 C         138.5735  140.1866  163.5887 C.ar    1  UNL1       -0.0019
     31 C         138.2891  140.2536  165.0599 C.ar    1  UNL1        0.0293
     32 C         138.3725  139.0118  165.8972 C.ar    1  UNL1        0.1401
     33 F         138.0881  139.0788  167.3685 F       1  UNL1       -0.2042
     34 C         138.7402  137.7031  165.2633 C.ar    1  UNL1        0.0293
     35 C         139.0246  137.6361  163.7920 C.ar    1  UNL1       -0.0019
@<TRIPOS>BOND
     1    22    23    1
     2    23    24    1
     3    24    25    1
     4    25    26    1
     5    26    21    1
     6    21    20    1
     7    20    19    1
     8    19     1    1
     9     1     2   ar
    10     2     3   ar
    11     3    15    1
    12    15    16    1
    13    15    17    1
    14    15    18    1
    15     3     4   ar
    16     4     5   ar
    17     5     7    1
    18     7     8    1
    19     8     9    1
    20     9    10    1
    21    10    13    1
    22    13    14    3
    23    10    11    1
    24    11    12    1
    25     5     6   ar
    26    26    29    1
    27    29    30   ar
    28    30    31   ar
    29    31    32   ar
    30    32    33    1
    31    32    34   ar
    32    34    35   ar
    33    26    27    1
    34    27    28    1
    35    28    23    1
    36     6     1   ar
    37    35    29   ar
    38    12     7    1
@<TRIPOS>MOLECULE
*****
 35 38 0 0 0
SMALL
GASTEIGER

@<TRIPOS>ATOM
      1 C         141.9804  142.1671  164.1869 C.ar    1  UNL1        0.0901
      2 C         140.8342  142.9628  164.7375 C.ar    1  UNL1        0.0212
      3 C         139.4992  142.9259  164.0548 C.ar    1  UNL1        0.0754
      4 C         139.3102  142.0933  162.8214 C.ar    1  UNL1        0.0382
      5 C         140.4564  141.2976  162.2708 C.ar    1  UNL1        0.1313
      6 N         141.7915  141.3345  162.9535 N.ar    1  UNL1       -0.2325
      7 N         140.2674  140.4651  161.0375 N.pl3   1  UNL1       -0.2932
      8 C         139.0484  140.6545  160.1841 C.3     1  UNL1        0.0932
      9 C         138.8595  139.8219  158.9508 C.3     1  UNL1        0.0366
     10 C         139.8896  138.7999  158.5708 C.3     1  UNL1        0.0948
     11 C         141.1087  138.6104  159.4241 C.3     1  UNL1        0.0366
     12 C         141.2976  139.4430  160.6574 C.3     1  UNL1        0.0932
     13 C         139.7007  137.9674  157.3375 C.1     1  UNL1        0.0722
     14 N         139.5117  137.1347  156.1041 N.1     1  UNL1       -0.1959
     15 C         138.3529  143.7216  164.6054 C.3     1  UNL1        0.4187
     16 F         137.2067  144.5172  165.1559 F       1  UNL1       -0.1659
     17 F         137.4105  142.6103  164.2490 F       1  UNL1       -0.1659
     18 F         139.2954  144.8327  164.9616 F       1  UNL1       -0.1659
     19 C         143.3155  142.2040  164.8696 C.3     1  UNL1        0.1875
     20 O         143.6120  141.2506  165.9891 O.3     1  UNL1       -0.3470
     21 C         142.7155  140.0719  166.2277 C.3     1  UNL1        0.1467
     22 C         140.7980  141.7544  171.3594 C.3     1  UNL1        0.0896
     23 N         141.0651  141.2258  169.9813 N.3     1  UNL1       -0.2715
     24 C         139.9704  140.5457  169.2137 C.3     1  UNL1        0.0725
     25 C         140.2375  140.0170  167.8356 C.3     1  UNL1        0.0238
     26 C         141.5992  140.1684  167.2251 C.3     1  UNL1        0.0489
     27 C         142.6939  140.8484  167.9927 C.3     1  UNL1        0.0238
     28 C         142.4268  141.3771  169.3708 C.3     1  UNL1        0.0725
     29 C         140.8922  139.4548  166.1111 C.ar    1  UNL1       -0.0202
     30 C         139.4328  139.7021  165.8690 C.ar    1  UNL1       -0.0019
     31 C         138.7257  138.9886  164.7551 C.ar    1  UNL1        0.0293
     32 C         139.4782  138.0277  163.8832 C.ar    1  UNL1        0.1401
     33 F         138.7712  137.3141  162.7692 F       1  UNL1       -0.2042
     34 C         140.9378  137.7802  164.1252 C.ar    1  UNL1        0.0293
     35 C         141.6448  138.4938  165.2392 C.ar    1  UNL1       -0.0019
@<TRIPOS>BOND
     1    22    23    1
     2    23    24    1
     3    24    25    1
     4    25    26    1
     5    26    21    1
     6    21    20    1
     7    20    19    1
     8    19     1    1
     9     1     2   ar
    10     2     3   ar
    11     3    15    1
    12    15    16    1
    13    15    17    1
    14    15    18    1
    15     3     4   ar
    16     4     5   ar
    17     5     7    1
    18     7     8    1
    19     8     9    1
    20     9    10    1
    21    10    13    1
    22    13    14    3
    23    10    11    1
    24    11    12    1
    25     5     6   ar
    26    26    29    1
    27    29    30   ar
    28    30    31   ar
    29    31    32   ar
    30    32    33    1
    31    32    34   ar
    32    34    35   ar
    33    26    27    1
    34    27    28    1
    35    28    23    1
    36     6     1   ar
    37    35    29   ar
    38    12     7    1
@<TRIPOS>MOLECULE
*****
 35 38 0 0 0
SMALL
GASTEIGER

@<TRIPOS>ATOM
      1 C         141.1528  140.2646  163.0714 C.ar    1  UNL1        0.0901
      2 C         142.5594  140.3437  163.5865 C.ar    1  UNL1        0.0212
      3 C         143.5068  141.3629  163.0265 C.ar    1  UNL1        0.0754
      4 C         143.0477  142.3030  161.9516 C.ar    1  UNL1        0.0382
      5 C         141.6411  142.2239  161.4366 C.ar    1  UNL1        0.1313
      6 N         140.6936  141.2047  161.9965 N.ar    1  UNL1       -0.2325
      7 N         141.1821  143.1640  160.3617 N.pl3   1  UNL1       -0.2932
      8 C         140.1820  142.7063  159.3417 C.3     1  UNL1        0.0932
      9 C         139.7230  143.6464  158.2668 C.3     1  UNL1        0.0366
     10 C         140.2640  145.0444  158.2119 C.3     1  UNL1        0.0948
     11 C         141.2641  145.5022  159.2319 C.3     1  UNL1        0.0366
     12 C         141.7231  144.5620  160.3068 C.3     1  UNL1        0.0932
     13 C         139.8050  145.9845  157.1371 C.1     1  UNL1        0.0722
     14 N         139.3459  146.9247  156.0622 N.1     1  UNL1       -0.1959
     15 C         144.9135  141.4420  163.5415 C.3     1  UNL1        0.4187
     16 F         146.3200  141.5213  164.0565 F       1  UNL1       -0.1659
     17 F         144.9733  142.8903  163.1554 F       1  UNL1       -0.1659
     18 F         144.8536  139.9938  163.9276 F       1  UNL1       -0.1659
     19 C         140.2053  139.2454  163.6313 C.3     1  UNL1        0.1875
     20 O         139.4955  139.5124  164.9255 O.3     1  UNL1       -0.3470
     21 C         139.0521  140.9048  165.2643 C.3     1  UNL1        0.1467
     22 C         141.2932  141.0407  170.5370 C.3     1  UNL1        0.0896
     23 N         140.7750  141.2487  169.1448 N.3     1  UNL1       -0.2715
     24 C         140.9061  142.5911  168.4885 C.3     1  UNL1        0.0725
     25 C         140.3879  142.7991  167.0963 C.3     1  UNL1        0.0238
     26 C         139.7387  141.6647  166.3604 C.3     1  UNL1        0.0489
     27 C         139.6076  140.3223  167.0167 C.3     1  UNL1        0.0238
     28 C         140.1258  140.1143  168.4089 C.3     1  UNL1        0.0725
     29 C         139.6313  142.7432  165.3234 C.ar    1  UNL1       -0.0202
     30 C         140.8325  143.5714  164.9756 C.ar    1  UNL1       -0.0019
     31 C         140.7252  144.6499  163.9386 C.ar    1  UNL1        0.0293
     32 C         139.4166  144.9002  163.2495 C.ar    1  UNL1        0.1401
     33 F         139.3093  145.9787  162.2125 F       1  UNL1       -0.2042
     34 C         138.2153  144.0719  163.5973 C.ar    1  UNL1        0.0293
     35 C         138.3227  142.9934  164.6342 C.ar    1  UNL1       -0.0019
@<TRIPOS>BOND
     1    22    23    1
     2    23    24    1
     3    24    25    1
     4    25    26    1
     5    26    21    1
     6    21    20    1
     7    20    19    1
     8    19     1    1
     9     1     2   ar
    10     2     3   ar
    11     3    15    1
    12    15    16    1
    13    15    17    1
    14    15    18    1
    15     3     4   ar
    16     4     5   ar
    17     5     7    1
    18     7     8    1
    19     8     9    1
    20     9    10    1
    21    10    13    1
    22    13    14    3
    23    10    11    1
    24    11    12    1
    25     5     6   ar
    26    26    29    1
    27    29    30   ar
    28    30    31   ar
    29    31    32   ar
    30    32    33    1
    31    32    34   ar
    32    34    35   ar
    33    26    27    1
    34    27    28    1
    35    28    23    1
    36     6     1   ar
    37    35    29   ar
    38    12     7    1
@<TRIPOS>MOLECULE
*****
 35 38 0 0 0
SMALL
GASTEIGER

@<TRIPOS>ATOM
      1 C         140.0112  142.0120  163.9196 C.ar    1  UNL1        0.0901
      2 C         140.9292  143.1097  164.3697 C.ar    1  UNL1        0.0212
      3 C         142.1934  143.3879  163.6119 C.ar    1  UNL1        0.0754
      4 C         142.5398  142.5685  162.4042 C.ar    1  UNL1        0.0382
      5 C         141.6218  141.4708  161.9542 C.ar    1  UNL1        0.1313
      6 N         140.3575  141.1926  162.7119 N.ar    1  UNL1       -0.2325
      7 N         141.9682  140.6514  160.7465 N.pl3   1  UNL1       -0.2932
      8 C         140.9773  139.6680  160.1979 C.3     1  UNL1        0.0932
      9 C         141.3236  138.8486  158.9902 C.3     1  UNL1        0.0366
     10 C         142.6611  139.0127  158.3310 C.3     1  UNL1        0.0948
     11 C         143.6521  139.9960  158.8796 C.3     1  UNL1        0.0366
     12 C         143.3057  140.8154  160.0873 C.3     1  UNL1        0.0932
     13 C         143.0075  138.1933  157.1233 C.1     1  UNL1        0.0722
     14 N         143.3538  137.3739  155.9155 N.1     1  UNL1       -0.1959
     15 C         143.1115  144.4856  164.0618 C.3     1  UNL1        0.4187
     16 F         144.0294  145.5833  164.5118 F       1  UNL1       -0.1659
     17 F         141.9696  145.4575  164.0202 F       1  UNL1       -0.1659
     18 F         144.2532  143.5137  164.1034 F       1  UNL1       -0.1659
     19 C         138.7469  141.7338  164.6774 C.3     1  UNL1        0.1875
     20 O         138.7695  140.8136  165.8618 O.3     1  UNL1       -0.3470
     21 C         139.7698  139.6977  165.9256 C.3     1  UNL1        0.1467
     22 C         141.7858  140.8634  171.1619 C.3     1  UNL1        0.0896
     23 N         141.4984  140.5018  169.7348 N.3     1  UNL1       -0.2715
     24 C         142.6129  140.0568  168.8349 C.3     1  UNL1        0.0725
     25 C         142.3256  139.6952  167.4077 C.3     1  UNL1        0.0238
     26 C         140.9238  139.7786  166.8805 C.3     1  UNL1        0.0489
     27 C         139.8093  140.2236  167.7805 C.3     1  UNL1        0.0238
     28 C         140.0966  140.5852  169.2076 C.3     1  UNL1        0.0725
     29 C         141.6375  139.3055  165.6489 C.ar    1  UNL1       -0.0202
     30 C         142.9657  139.8958  165.2784 C.ar    1  UNL1       -0.0019
     31 C         143.6794  139.4228  164.0469 C.ar    1  UNL1        0.0293
     32 C         143.0649  138.3593  163.1859 C.ar    1  UNL1        0.1401
     33 F         143.7787  137.8862  161.9543 F       1  UNL1       -0.2042
     34 C         141.7368  137.7689  163.5563 C.ar    1  UNL1        0.0293
     35 C         141.0230  138.2420  164.7879 C.ar    1  UNL1       -0.0019
@<TRIPOS>BOND
     1    22    23    1
     2    23    24    1
     3    24    25    1
     4    25    26    1
     5    26    21    1
     6    21    20    1
     7    20    19    1
     8    19     1    1
     9     1     2   ar
    10     2     3   ar
    11     3    15    1
    12    15    16    1
    13    15    17    1
    14    15    18    1
    15     3     4   ar
    16     4     5   ar
    17     5     7    1
    18     7     8    1
    19     8     9    1
    20     9    10    1
    21    10    13    1
    22    13    14    3
    23    10    11    1
    24    11    12    1
    25     5     6   ar
    26    26    29    1
    27    29    30   ar
    28    30    31   ar
    29    31    32   ar
    30    32    33    1
    31    32    34   ar
    32    34    35   ar
    33    26    27    1
    34    27    28    1
    35    28    23    1
    36     6     1   ar
    37    35    29   ar
    38    12     7    1
@<TRIPOS>MOLECULE
*****
 35 38 0 0 0
SMALL
GASTEIGER

@<TRIPOS>ATOM
      1 C         143.7308  141.9658  162.7708 C.ar    1  UNL1        0.0901
      2 C         143.0289  142.9808  161.9181 C.ar    1  UNL1        0.0212
      3 C         141.9841  143.8727  162.5206 C.ar    1  UNL1        0.0754
      4 C         141.6412  143.7495  163.9757 C.ar    1  UNL1        0.0382
      5 C         142.3432  142.7344  164.8283 C.ar    1  UNL1        0.1313
      6 N         143.3880  141.8426  164.2259 N.ar    1  UNL1       -0.2325
      7 N         142.0003  142.6113  166.2834 N.pl3   1  UNL1       -0.2932
      8 C         143.0447  142.1700  167.2654 C.3     1  UNL1        0.0932
      9 C         142.7018  142.0469  168.7205 C.3     1  UNL1        0.0366
     10 C         141.3142  142.3650  169.1935 C.3     1  UNL1        0.0948
     11 C         140.2698  142.8063  168.2115 C.3     1  UNL1        0.0366
     12 C         140.6127  142.9295  166.7564 C.3     1  UNL1        0.0932
     13 C         140.9713  142.2419  170.6485 C.1     1  UNL1        0.0722
     14 N         140.6285  142.1188  172.1037 N.1     1  UNL1       -0.1959
     15 C         141.2821  144.8878  161.6680 C.3     1  UNL1        0.4187
     16 F         140.5802  145.9029  160.8155 F       1  UNL1       -0.1659
     17 F         141.1555  145.7967  162.8546 F       1  UNL1       -0.1659
     18 F         141.4088  143.9788  160.4815 F       1  UNL1       -0.1659
     19 C         144.7756  141.0739  162.1683 C.3     1  UNL1        0.1875
     20 O         144.3686  139.8254  161.4434 O.3     1  UNL1       -0.3470
     21 C         143.3729  138.8896  162.0622 C.3     1  UNL1        0.1467
     22 C         140.0403  138.1010  157.4672 C.3     1  UNL1        0.0896
     23 N         140.6951  138.3165  158.7995 N.3     1  UNL1       -0.2715
     24 C         139.8551  138.4551  160.0344 C.3     1  UNL1        0.0725
     25 C         140.5099  138.6706  161.3666 C.3     1  UNL1        0.0238
     26 C         142.0047  138.7474  161.4639 C.3     1  UNL1        0.0489
     27 C         142.8447  138.6088  160.2290 C.3     1  UNL1        0.0238
     28 C         142.1899  138.3934  158.8967 C.3     1  UNL1        0.0725
     29 C         141.6398  138.9354  162.9067 C.ar    1  UNL1       -0.0202
     30 C         140.4403  139.7568  163.2760 C.ar    1  UNL1       -0.0019
     31 C         140.0754  139.9448  164.7187 C.ar    1  UNL1        0.0293
     32 C         140.9100  139.3114  165.7921 C.ar    1  UNL1        0.1401
     33 F         140.5451  139.4994  167.2349 F       1  UNL1       -0.2042
     34 C         142.1096  138.4900  165.4228 C.ar    1  UNL1        0.0293
     35 C         142.4745  138.3020  163.9800 C.ar    1  UNL1       -0.0019
@<TRIPOS>BOND
     1    22    23    1
     2    23    24    1
     3    24    25    1
     4    25    26    1
     5    26    21    1
     6    21    20    1
     7    20    19    1
     8    19     1    1
     9     1     2   ar
    10     2     3   ar
    11     3    15    1
    12    15    16    1
    13    15    17    1
    14    15    18    1
    15     3     4   ar
    16     4     5   ar
    17     5     7    1
    18     7     8    1
    19     8     9    1
    20     9    10    1
    21    10    13    1
    22    13    14    3
    23    10    11    1
    24    11    12    1
    25     5     6   ar
    26    26    29    1
    27    29    30   ar
    28    30    31   ar
    29    31    32   ar
    30    32    33    1
    31    32    34   ar
    32    34    35   ar
    33    26    27    1
    34    27    28    1
    35    28    23    1
    36     6     1   ar
    37    35    29   ar
    38    12     7    1
