@<TRIPOS>MOLECULE
*****
 24 26 0 0 0
SMALL
GASTEIGER

@<TRIPOS>ATOM
      1 C         139.6697  141.9023  165.0140 C.ar    1  UNL1       -0.0001
      2 C         138.4942  140.9946  164.8042 C.ar    1  UNL1       -0.0000
      3 C         138.2512  139.8524  165.7458 C.ar    1  UNL1       -0.0002
      4 C         139.1838  139.6180  166.8970 C.ar    1  UNL1       -0.0003
      5 C         140.3594  140.5259  167.1067 C.ar    1  UNL1        0.0225
      6 C         140.6023  141.6680  166.1652 C.ar    1  UNL1       -0.0003
      7 C         141.2920  140.2915  168.2579 C.3     1  UNL1        0.2030
      8 C         142.0232  139.5535  167.1759 C.3     1  UNL1        0.0589
      9 C         140.2369  141.1109  168.9401 C.3     1  UNL1        0.1113
     10 S         140.3683  141.4396  170.3977 S.3     1  UNL1       -0.1229
     11 C         141.5548  140.9489  171.1732 C.3     1  UNL1        0.1740
     12 C         142.6100  140.1296  170.4910 C.2     1  UNL1        0.3001
     13 N         143.7965  139.6389  171.2664 N.pl3   1  UNL1       -0.2494
     14 N         142.4785  139.8008  169.0334 N.2     1  UNL1       -0.0727
     15 H         143.8828  139.8546  172.2231 H       1  UNL1        0.2881
     16 H         144.4890  139.1011  170.8186 H       1  UNL1        0.2881
     17 C         141.5210  144.4003  162.5476 C.ar    1  UNL1        0.1387
     18 C         140.3987  145.3288  162.1895 C.ar    1  UNL1        0.0369
     19 C         139.0334  145.1152  162.7728 C.ar    1  UNL1        0.0031
     20 C         138.7904  143.9731  163.7143 C.ar    1  UNL1        0.0002
     21 C         139.9127  143.0446  164.0724 C.ar    1  UNL1        0.0030
     22 C         141.2780  143.2582  163.4891 C.ar    1  UNL1        0.0369
     23 C         144.1049  144.2086  162.7393 C.3     1  UNL1        0.2525
     24 O         142.8863  144.6139  161.9642 O.3     1  UNL1       -0.4714
@<TRIPOS>BOND
     1    23    24    1
     2    24    17    1
     3    17    18   ar
     4    18    19   ar
     5    19    20   ar
     6    20    21   ar
     7    21     1    1
     8     1     2   ar
     9     2     3   ar
    10     3     4   ar
    11     4     5   ar
    12     5     7    1
    13     7     8    1
    14     7     9    1
    15     9    10    1
    16    10    11    1
    17    11    12    1
    18    12    13    1
    19    12    14    2
    20     5     6   ar
    21    21    22   ar
    22    22    17   ar
    23     6     1   ar
    24    14     7    1
    25    13    15    1
    26    13    16    1
@<TRIPOS>MOLECULE
*****
 24 26 0 0 0
SMALL
GASTEIGER

@<TRIPOS>ATOM
      1 C         138.9710  140.8126  165.1588 C.ar    1  UNL1       -0.0001
      2 C         138.1200  139.7109  165.7174 C.ar    1  UNL1       -0.0000
      3 C         138.4165  139.1498  167.0766 C.ar    1  UNL1       -0.0002
      4 C         139.5641  139.6904  167.8771 C.ar    1  UNL1       -0.0003
      5 C         140.4152  140.7921  167.3185 C.ar    1  UNL1        0.0225
      6 C         140.1186  141.3532  165.9593 C.ar    1  UNL1       -0.0003
      7 C         141.5628  141.3327  168.1190 C.3     1  UNL1        0.2030
      8 C         142.2845  140.3202  167.2799 C.3     1  UNL1        0.0589
      9 C         140.4425  142.1574  168.6799 C.3     1  UNL1        0.1113
     10 S         140.7205  143.1711  169.7501 S.3     1  UNL1       -0.1229
     11 C         142.1187  143.3600  170.2592 C.3     1  UNL1        0.1740
     12 C         143.2390  142.5353  169.6982 C.2     1  UNL1        0.3001
     13 N         144.6372  142.7242  170.2073 N.pl3   1  UNL1       -0.2494
     14 N         142.9610  141.5216  168.6281 N.2     1  UNL1       -0.0727
     15 H         144.8197  143.3895  170.9096 H       1  UNL1        0.2881
     16 H         145.3725  142.1829  169.8390 H       1  UNL1        0.2881
     17 C         138.5031  143.4092  162.1943 C.ar    1  UNL1        0.1387
     18 C         138.0815  142.4960  161.0815 C.ar    1  UNL1        0.0369
     19 C         137.9564  141.0217  161.3278 C.ar    1  UNL1        0.0031
     20 C         138.2529  140.4605  162.6869 C.ar    1  UNL1        0.0002
     21 C         138.6745  141.3737  163.7997 C.ar    1  UNL1        0.0030
     22 C         138.7996  142.8480  163.5533 C.ar    1  UNL1        0.0369
     23 C         139.8489  145.6207  162.4132 C.3     1  UNL1        0.2525
     24 O         138.6282  144.8835  161.9479 O.3     1  UNL1       -0.4714
@<TRIPOS>BOND
     1    23    24    1
     2    24    17    1
     3    17    18   ar
     4    18    19   ar
     5    19    20   ar
     6    20    21   ar
     7    21     1    1
     8     1     2   ar
     9     2     3   ar
    10     3     4   ar
    11     4     5   ar
    12     5     7    1
    13     7     8    1
    14     7     9    1
    15     9    10    1
    16    10    11    1
    17    11    12    1
    18    12    13    1
    19    12    14    2
    20     5     6   ar
    21    21    22   ar
    22    22    17   ar
    23     6     1   ar
    24    14     7    1
    25    13    15    1
    26    13    16    1
@<TRIPOS>MOLECULE
*****
 24 26 0 0 0
SMALL
GASTEIGER

@<TRIPOS>ATOM
      1 C         139.6942  141.0778  166.9044 C.ar    1  UNL1       -0.0001
      2 C         138.9982  139.8261  166.4587 C.ar    1  UNL1       -0.0000
      3 C         138.3493  139.7693  165.1075 C.ar    1  UNL1       -0.0002
      4 C         138.3965  140.9643  164.2020 C.ar    1  UNL1       -0.0003
      5 C         139.0925  142.2160  164.6478 C.ar    1  UNL1        0.0225
      6 C         139.7414  142.2728  165.9990 C.ar    1  UNL1       -0.0003
      7 C         139.1396  143.4110  163.7423 C.3     1  UNL1        0.2030
      8 C         137.7000  143.4580  164.1609 C.3     1  UNL1        0.0589
      9 C         140.5629  142.9490  163.6382 C.3     1  UNL1        0.1113
     10 S         141.5333  143.6983  162.7740 S.3     1  UNL1       -0.1229
     11 C         141.0805  144.9095  162.0139 C.3     1  UNL1        0.1740
     12 C         139.6573  145.3715  162.1180 C.2     1  UNL1        0.3001
     13 N         139.2043  146.5828  161.3580 N.pl3   1  UNL1       -0.2494
     14 N         138.6868  144.6222  162.9823 N.2     1  UNL1       -0.0727
     15 H         139.8412  147.0746  160.7908 H       1  UNL1        0.2881
     16 H         138.2702  146.8860  161.4264 H       1  UNL1        0.2881
     17 C         142.0787  142.1900  169.8755 C.ar    1  UNL1        0.1387
     18 C         141.6409  141.2484  170.9579 C.ar    1  UNL1        0.0369
     19 C         140.5543  140.2499  170.6892 C.ar    1  UNL1        0.0031
     20 C         139.9054  140.1931  169.3381 C.ar    1  UNL1        0.0002
     21 C         140.3431  141.1347  168.2556 C.ar    1  UNL1        0.0030
     22 C         141.4298  142.1331  168.5244 C.ar    1  UNL1        0.0369
     23 C         144.6036  142.7677  170.0780 C.3     1  UNL1        0.2525
     24 O         143.1654  143.1884  170.1442 O.3     1  UNL1       -0.4714
@<TRIPOS>BOND
     1    23    24    1
     2    24    17    1
     3    17    18   ar
     4    18    19   ar
     5    19    20   ar
     6    20    21   ar
     7    21     1    1
     8     1     2   ar
     9     2     3   ar
    10     3     4   ar
    11     4     5   ar
    12     5     7    1
    13     7     8    1
    14     7     9    1
    15     9    10    1
    16    10    11    1
    17    11    12    1
    18    12    13    1
    19    12    14    2
    20     5     6   ar
    21    21    22   ar
    22    22    17   ar
    23     6     1   ar
    24    14     7    1
    25    13    15    1
    26    13    16    1
@<TRIPOS>MOLECULE
*****
 24 26 0 0 0
SMALL
GASTEIGER

@<TRIPOS>ATOM
      1 C         139.4400  139.0942  165.3546 C.ar    1  UNL1       -0.0001
      2 C         138.1867  138.7204  166.0890 C.ar    1  UNL1       -0.0000
      3 C         138.0431  139.0521  167.5448 C.ar    1  UNL1       -0.0002
      4 C         139.1531  139.7575  168.2663 C.ar    1  UNL1       -0.0003
      5 C         140.4065  140.1313  167.5318 C.ar    1  UNL1        0.0225
      6 C         140.5500  139.7996  166.0760 C.ar    1  UNL1       -0.0003
      7 C         141.5164  140.8367  168.2533 C.3     1  UNL1        0.2030
      8 C         142.2808  139.6942  167.6528 C.3     1  UNL1        0.0589
      9 C         140.3666  141.7341  168.6032 C.3     1  UNL1        0.1113
     10 S         140.5921  142.9402  169.4660 S.3     1  UNL1       -0.1229
     11 C         141.9674  143.2489  169.9789 C.3     1  UNL1        0.1740
     12 C         143.1173  142.3515  169.6290 C.2     1  UNL1        0.3001
     13 N         144.4927  142.6600  170.1419 N.pl3   1  UNL1       -0.2494
     14 N         142.8917  141.1453  168.7662 N.2     1  UNL1       -0.0727
     15 H         144.6408  143.4516  170.7082 H       1  UNL1        0.2881
     16 H         145.2473  142.0710  169.9122 H       1  UNL1        0.2881
     17 C         141.0618  138.0198  161.8954 C.ar    1  UNL1        0.1387
     18 C         139.8707  138.0992  160.9872 C.ar    1  UNL1        0.0369
     19 C         138.5360  138.5102  161.5347 C.ar    1  UNL1        0.0031
     20 C         138.3925  138.8419  162.9905 C.ar    1  UNL1        0.0002
     21 C         139.5836  138.7625  163.8987 C.ar    1  UNL1        0.0030
     22 C         140.9182  138.3515  163.3512 C.ar    1  UNL1        0.0369
     23 C         143.4972  138.6194  161.2178 C.3     1  UNL1        0.2525
     24 O         142.3964  137.6088  161.3479 O.3     1  UNL1       -0.4714
@<TRIPOS>BOND
     1    23    24    1
     2    24    17    1
     3    17    18   ar
     4    18    19   ar
     5    19    20   ar
     6    20    21   ar
     7    21     1    1
     8     1     2   ar
     9     2     3   ar
    10     3     4   ar
    11     4     5   ar
    12     5     7    1
    13     7     8    1
    14     7     9    1
    15     9    10    1
    16    10    11    1
    17    11    12    1
    18    12    13    1
    19    12    14    2
    20     5     6   ar
    21    21    22   ar
    22    22    17   ar
    23     6     1   ar
    24    14     7    1
    25    13    15    1
    26    13    16    1
@<TRIPOS>MOLECULE
*****
 24 26 0 0 0
SMALL
GASTEIGER

@<TRIPOS>ATOM
      1 C         139.8150  141.8721  164.9787 C.ar    1  UNL1       -0.0001
      2 C         138.6101  140.9999  164.7856 C.ar    1  UNL1       -0.0000
      3 C         138.3222  139.8928  165.7560 C.ar    1  UNL1       -0.0002
      4 C         139.2393  139.6581  166.9196 C.ar    1  UNL1       -0.0003
      5 C         140.4443  140.5305  167.1127 C.ar    1  UNL1        0.0225
      6 C         140.7321  141.6374  166.1423 C.ar    1  UNL1       -0.0003
      7 C         141.3614  140.2958  168.2762 C.3     1  UNL1        0.2030
      8 C         142.1054  139.5555  167.2046 C.3     1  UNL1        0.0589
      9 C         140.2987  141.1175  168.9437 C.3     1  UNL1        0.1113
     10 S         140.4116  141.4475  170.4026 S.3     1  UNL1       -0.1229
     11 C         141.5871  140.9557  171.1940 C.3     1  UNL1        0.1740
     12 C         142.6497  140.1340  170.5265 C.2     1  UNL1        0.3001
     13 N         143.8253  139.6421  171.3179 N.pl3   1  UNL1       -0.2494
     14 N         142.5368  139.8040  169.0676 N.2     1  UNL1       -0.0727
     15 H         143.8994  139.8587  172.2754 H       1  UNL1        0.2881
     16 H         144.5227  139.1028  170.8797 H       1  UNL1        0.2881
     17 C         139.7928  144.0522  161.6625 C.ar    1  UNL1        0.1387
     18 C         140.6785  145.1930  162.0674 C.ar    1  UNL1        0.0369
     19 C         141.2764  145.2269  163.4427 C.ar    1  UNL1        0.0031
     20 C         140.9886  144.1200  164.4131 C.ar    1  UNL1        0.0002
     21 C         140.1029  142.9792  164.0083 C.ar    1  UNL1        0.0030
     22 C         139.5050  142.9453  162.6330 C.ar    1  UNL1        0.0369
     23 C         138.8867  142.7029  159.6357 C.3     1  UNL1        0.2525
     24 O         139.1949  144.0183  160.2873 O.3     1  UNL1       -0.4714
@<TRIPOS>BOND
     1    23    24    1
     2    24    17    1
     3    17    18   ar
     4    18    19   ar
     5    19    20   ar
     6    20    21   ar
     7    21     1    1
     8     1     2   ar
     9     2     3   ar
    10     3     4   ar
    11     4     5   ar
    12     5     7    1
    13     7     8    1
    14     7     9    1
    15     9    10    1
    16    10    11    1
    17    11    12    1
    18    12    13    1
    19    12    14    2
    20     5     6   ar
    21    21    22   ar
    22    22    17   ar
    23     6     1   ar
    24    14     7    1
    25    13    15    1
    26    13    16    1
@<TRIPOS>MOLECULE
*****
 24 26 0 0 0
SMALL
GASTEIGER

@<TRIPOS>ATOM
      1 C         141.8973  143.5745  164.5012 C.ar    1  UNL1       -0.0001
      2 C         143.3872  143.5259  164.6674 C.ar    1  UNL1       -0.0000
      3 C         143.9871  142.8377  165.8576 C.ar    1  UNL1       -0.0002
      4 C         143.0970  142.1980  166.8816 C.ar    1  UNL1       -0.0003
      5 C         141.6070  142.2466  166.7153 C.ar    1  UNL1        0.0225
      6 C         141.0071  142.9349  165.5252 C.ar    1  UNL1       -0.0003
      7 C         140.7168  141.6070  167.7393 C.3     1  UNL1        0.2030
      8 C         140.6658  140.5644  166.6621 C.3     1  UNL1        0.0589
      9 C         141.0770  142.8718  168.4609 C.3     1  UNL1        0.1113
     10 S         140.5292  143.1348  169.8323 S.3     1  UNL1       -0.1229
     11 C         139.6214  142.1331  170.4822 C.3     1  UNL1        0.1740
     12 C         139.2613  140.8683  169.7606 C.2     1  UNL1        0.3001
     13 N         138.3534  139.8665  170.4104 N.pl3   1  UNL1       -0.2494
     14 N         139.8090  140.6053  168.3892 N.2     1  UNL1       -0.0727
     15 H         137.9939  140.0391  171.3106 H       1  UNL1        0.2881
     16 H         138.1171  139.0364  169.9368 H       1  UNL1        0.2881
     17 C         141.4068  144.9187  160.7995 C.ar    1  UNL1        0.1387
     18 C         140.0978  145.6393  160.9307 C.ar    1  UNL1        0.0369
     19 C         139.3886  145.6716  162.2521 C.ar    1  UNL1        0.0031
     20 C         139.9884  144.9834  163.4422 C.ar    1  UNL1        0.0002
     21 C         141.2974  144.2628  163.3110 C.ar    1  UNL1        0.0030
     22 C         142.0066  144.2305  161.9897 C.ar    1  UNL1        0.0369
     23 C         141.4852  145.5180  158.2727 C.3     1  UNL1        0.2525
     24 O         142.1160  144.8864  159.4782 O.3     1  UNL1       -0.4714
@<TRIPOS>BOND
     1    23    24    1
     2    24    17    1
     3    17    18   ar
     4    18    19   ar
     5    19    20   ar
     6    20    21   ar
     7    21     1    1
     8     1     2   ar
     9     2     3   ar
    10     3     4   ar
    11     4     5   ar
    12     5     7    1
    13     7     8    1
    14     7     9    1
    15     9    10    1
    16    10    11    1
    17    11    12    1
    18    12    13    1
    19    12    14    2
    20     5     6   ar
    21    21    22   ar
    22    22    17   ar
    23     6     1   ar
    24    14     7    1
    25    13    15    1
    26    13    16    1
@<TRIPOS>MOLECULE
*****
 24 26 0 0 0
SMALL
GASTEIGER

@<TRIPOS>ATOM
      1 C         140.9624  139.2025  164.5478 C.ar    1  UNL1       -0.0001
      2 C         139.8153  138.2390  164.6228 C.ar    1  UNL1       -0.0000
      3 C         138.7952  138.3709  165.7147 C.ar    1  UNL1       -0.0002
      4 C         138.9223  139.4663  166.7315 C.ar    1  UNL1       -0.0003
      5 C         140.0696  140.4298  166.6565 C.ar    1  UNL1        0.0225
      6 C         141.0896  140.2979  165.5647 C.ar    1  UNL1       -0.0003
      7 C         140.1967  141.5252  167.6733 C.3     1  UNL1        0.2030
      8 C         140.2115  142.3374  166.4122 C.3     1  UNL1        0.0589
      9 C         140.1378  140.3326  168.5811 C.3     1  UNL1        0.1113
     10 S         140.2111  140.5175  170.0679 S.3     1  UNL1       -0.1229
     11 C         140.3434  141.8950  170.6468 C.3     1  UNL1        0.1740
     12 C         140.4023  143.0876  169.7389 C.2     1  UNL1        0.3001
     13 N         140.5346  144.4650  170.3177 N.pl3   1  UNL1       -0.2494
     14 N         140.3290  142.9027  168.2521 N.2     1  UNL1       -0.0727
     15 H         140.5827  144.5864  171.2935 H       1  UNL1        0.2881
     16 H         140.5733  145.2477  169.7218 H       1  UNL1        0.2881
     17 C         144.1028  139.9506  162.2395 C.ar    1  UNL1        0.1387
     18 C         144.0227  138.8068  161.2725 C.ar    1  UNL1        0.0369
     19 C         142.9225  137.7949  161.3972 C.ar    1  UNL1        0.0031
     20 C         141.9024  137.9268  162.4889 C.ar    1  UNL1        0.0002
     21 C         141.9826  139.0706  163.4560 C.ar    1  UNL1        0.0030
     22 C         143.0828  140.0825  163.3313 C.ar    1  UNL1        0.0369
     23 C         145.6883  141.6965  163.3297 C.3     1  UNL1        0.2525
     24 O         145.2030  140.9626  162.1148 O.3     1  UNL1       -0.4714
@<TRIPOS>BOND
     1    23    24    1
     2    24    17    1
     3    17    18   ar
     4    18    19   ar
     5    19    20   ar
     6    20    21   ar
     7    21     1    1
     8     1     2   ar
     9     2     3   ar
    10     3     4   ar
    11     4     5   ar
    12     5     7    1
    13     7     8    1
    14     7     9    1
    15     9    10    1
    16    10    11    1
    17    11    12    1
    18    12    13    1
    19    12    14    2
    20     5     6   ar
    21    21    22   ar
    22    22    17   ar
    23     6     1   ar
    24    14     7    1
    25    13    15    1
    26    13    16    1
@<TRIPOS>MOLECULE
*****
 24 26 0 0 0
SMALL
GASTEIGER

@<TRIPOS>ATOM
      1 C         141.4230  138.9140  164.9266 C.ar    1  UNL1       -0.0001
      2 C         142.6036  138.0721  165.3102 C.ar    1  UNL1       -0.0000
      3 C         143.3510  138.3615  166.5782 C.ar    1  UNL1       -0.0002
      4 C         142.9176  139.4930  167.4625 C.ar    1  UNL1       -0.0003
      5 C         141.7370  140.3350  167.0788 C.ar    1  UNL1        0.0225
      6 C         140.9897  140.0455  165.8109 C.ar    1  UNL1       -0.0003
      7 C         141.3036  141.4664  167.9632 C.3     1  UNL1        0.2030
      8 C         142.2177  142.2017  167.0284 C.3     1  UNL1        0.0589
      9 C         140.5401  140.3381  168.5908 C.3     1  UNL1        0.1113
     10 S         139.6606  140.5967  169.7782 S.3     1  UNL1       -0.1229
     11 C         139.5448  141.9835  170.3378 C.3     1  UNL1        0.1740
     12 C         140.3083  143.1118  169.7102 C.2     1  UNL1        0.3001
     13 N         140.1925  144.4986  170.2698 N.pl3   1  UNL1       -0.2494
     14 N         141.1877  142.8532  168.5228 N.2     1  UNL1       -0.0727
     15 H         139.6153  144.6684  171.0491 H       1  UNL1        0.2881
     16 H         140.6936  145.2392  169.8578 H       1  UNL1        0.2881
     17 C         140.6528  138.3318  161.0772 C.ar    1  UNL1        0.1387
     18 C         139.1811  138.0456  161.1227 C.ar    1  UNL1        0.0369
     19 C         138.4567  138.0490  162.4361 C.ar    1  UNL1        0.0031
     20 C         139.2039  138.3384  163.7041 C.ar    1  UNL1        0.0002
     21 C         140.6757  138.6245  163.6586 C.ar    1  UNL1        0.0030
     22 C         141.4001  138.6212  162.3451 C.ar    1  UNL1        0.0369
     23 C         142.8659  138.5090  159.7278 C.3     1  UNL1        0.2525
     24 O         141.3773  138.3285  159.7637 O.3     1  UNL1       -0.4714
@<TRIPOS>BOND
     1    23    24    1
     2    24    17    1
     3    17    18   ar
     4    18    19   ar
     5    19    20   ar
     6    20    21   ar
     7    21     1    1
     8     1     2   ar
     9     2     3   ar
    10     3     4   ar
    11     4     5   ar
    12     5     7    1
    13     7     8    1
    14     7     9    1
    15     9    10    1
    16    10    11    1
    17    11    12    1
    18    12    13    1
    19    12    14    2
    20     5     6   ar
    21    21    22   ar
    22    22    17   ar
    23     6     1   ar
    24    14     7    1
    25    13    15    1
    26    13    16    1
@<TRIPOS>MOLECULE
*****
 24 26 0 0 0
SMALL
GASTEIGER

@<TRIPOS>ATOM
      1 C         142.0273  142.5394  166.3920 C.ar    1  UNL1       -0.0001
      2 C         143.5197  142.5122  166.5398 C.ar    1  UNL1       -0.0000
      3 C         144.3912  143.0747  165.4562 C.ar    1  UNL1       -0.0002
      4 C         143.7701  143.6644  164.2247 C.ar    1  UNL1       -0.0003
      5 C         142.2776  143.6916  164.0768 C.ar    1  UNL1        0.0225
      6 C         141.4063  143.1291  165.1605 C.ar    1  UNL1       -0.0003
      7 C         141.6566  144.2812  162.8453 C.3     1  UNL1        0.2030
      8 C         140.9110  145.0408  163.9023 C.3     1  UNL1        0.0589
      9 C         142.6179  143.3169  162.2161 C.3     1  UNL1        0.1113
     10 S         142.6992  143.2060  160.7224 S.3     1  UNL1       -0.1229
     11 C         141.8192  144.0594  159.8580 C.3     1  UNL1        0.1740
     12 C         140.8579  145.0237  160.4872 C.2     1  UNL1        0.3001
     13 N         139.9779  145.8772  159.6228 N.pl3   1  UNL1       -0.2494
     14 N         140.7766  145.1346  161.9809 N.2     1  UNL1       -0.0727
     15 H         140.0312  145.8045  158.6425 H       1  UNL1        0.2881
     16 H         139.3470  146.5101  160.0359 H       1  UNL1        0.2881
     17 C         139.3765  140.2569  168.2663 C.ar    1  UNL1        0.1387
     18 C         139.4130  140.8519  169.6428 C.ar    1  UNL1        0.0369
     19 C         140.3210  142.0094  169.9356 C.ar    1  UNL1        0.0031
     20 C         141.1924  142.5719  168.8520 C.ar    1  UNL1        0.0002
     21 C         141.1559  141.9769  167.4756 C.ar    1  UNL1        0.0030
     22 C         140.2479  140.8194  167.1828 C.ar    1  UNL1        0.0369
     23 C         138.1096  138.7678  166.5554 C.3     1  UNL1        0.2525
     24 O         138.4685  139.0994  167.9735 O.3     1  UNL1       -0.4714
@<TRIPOS>BOND
     1    23    24    1
     2    24    17    1
     3    17    18   ar
     4    18    19   ar
     5    19    20   ar
     6    20    21   ar
     7    21     1    1
     8     1     2   ar
     9     2     3   ar
    10     3     4   ar
    11     4     5   ar
    12     5     7    1
    13     7     8    1
    14     7     9    1
    15     9    10    1
    16    10    11    1
    17    11    12    1
    18    12    13    1
    19    12    14    2
    20     5     6   ar
    21    21    22   ar
    22    22    17   ar
    23     6     1   ar
    24    14     7    1
    25    13    15    1
    26    13    16    1
