@<TRIPOS>MOLECULE
*****
 35 38 0 0 0
SMALL
GASTEIGER

@<TRIPOS>ATOM
      1 C         138.7682  140.1834  164.4511 C.ar    1  UNL1       -0.0164
      2 C         138.9592  139.8616  162.9985 C.ar    1  UNL1        0.0106
      3 C         139.5609  138.5485  162.5940 C.ar    1  UNL1        0.0502
      4 C         139.9716  137.5571  163.6421 C.ar    1  UNL1        0.0148
      5 C         139.7806  137.8789  165.0946 C.ar    1  UNL1        0.0057
      6 C         139.1789  139.1920  165.4991 C.ar    1  UNL1        0.0513
      7 C         138.9879  139.5138  166.9517 C.ar    1  UNL1        0.2509
      8 N         137.9804  138.8862  167.8688 N.ar    1  UNL1       -0.1058
      9 N         138.1407  139.5041  169.2261 N.ar    1  UNL1       -0.0923
     10 C         139.2474  140.5138  169.1480 C.ar    1  UNL1        0.3086
     11 O         139.7709  140.5197  167.7423 O.2     1  UNL1       -0.4049
     12 N         139.7434  141.3675  170.2772 N.pl3   1  UNL1       -0.2871
     13 H         139.8572  140.9791  171.1747 H       1  UNL1        0.1512
     14 C         140.0658  142.8129  170.0390 C.3     1  UNL1        0.0925
     15 C         141.4957  143.2618  169.9763 C.3     1  UNL1        0.0386
     16 C         142.5953  142.2487  169.8573 C.3     1  UNL1        0.0738
     17 N         142.7129  141.4114  168.6182 N.3     1  UNL1       -0.2726
     18 C         142.7745  139.9167  168.7260 C.3     1  UNL1        0.0721
     19 C         142.8921  139.0795  167.4869 C.3     1  UNL1        0.0174
     20 C         142.9481  139.7372  166.1399 C.3     1  UNL1        0.0029
     21 C         142.8865  141.2320  166.0321 C.3     1  UNL1        0.0174
     22 C         142.7689  142.0692  167.2712 C.3     1  UNL1        0.0721
     23 N         139.7519  138.2267  161.1414 N.am    1  UNL1       -0.2803
     24 C         140.9230  138.7940  160.3953 C.2     1  UNL1        0.2517
     25 O         141.9031  139.6830  161.1018 O.2     1  UNL1       -0.2697
     26 H         139.1086  137.6433  160.6777 H       1  UNL1        0.1552
     27 C         141.1140  138.4723  158.9427 C.ar    1  UNL1        0.0811
     28 C         142.3917  137.8399  158.4763 C.ar    1  UNL1        0.0068
     29 C         142.5827  137.5182  157.0236 C.ar    1  UNL1        0.0003
     30 C         141.4960  137.8289  156.0375 C.ar    1  UNL1        0.0023
     31 C         140.2183  138.4613  156.5039 C.ar    1  UNL1        0.0298
     32 C         140.0273  138.7830  157.9565 C.ar    1  UNL1        0.1445
     33 F         138.7496  139.4154  158.4229 F       1  UNL1       -0.2040
     34 C         137.6678  142.4474  163.8081 C.3     1  UNL1        0.0050
     35 C         138.1665  141.4966  164.8555 C.3     1  UNL1        0.0266
@<TRIPOS>BOND
     1    34    35    1
     2    35     1    1
     3     1     2   ar
     4     2     3   ar
     5     3    23    1
     6    23    24   am
     7    24    25    2
     8    24    27    1
     9    27    28   ar
    10    28    29   ar
    11    29    30   ar
    12    30    31   ar
    13    31    32   ar
    14    32    33    1
    15     3     4   ar
    16     4     5   ar
    17     5     6   ar
    18     6     7    1
    19     7     8   ar
    20     8     9   ar
    21     9    10   ar
    22    10    12    1
    23    12    14    1
    24    14    15    1
    25    15    16    1
    26    16    17    1
    27    17    18    1
    28    18    19    1
    29    19    20    1
    30    20    21    1
    31    21    22    1
    32    10    11   ar
    33     6     1   ar
    34    11     7   ar
    35    32    27   ar
    36    22    17    1
    37    23    26    1
    38    12    13    1
@<TRIPOS>MOLECULE
*****
 35 38 0 0 0
SMALL
GASTEIGER

@<TRIPOS>ATOM
      1 C         139.0120  140.1780  163.2713 C.ar    1  UNL1       -0.0164
      2 C         139.0102  140.8385  161.9245 C.ar    1  UNL1        0.0106
      3 C         138.5344  142.2541  161.7841 C.ar    1  UNL1        0.0502
      4 C         138.0604  143.0092  162.9903 C.ar    1  UNL1        0.0148
      5 C         138.0622  142.3487  164.3371 C.ar    1  UNL1        0.0057
      6 C         138.5380  140.9331  164.4775 C.ar    1  UNL1        0.0513
      7 C         138.5399  140.2726  165.8244 C.ar    1  UNL1        0.2509
      8 N         137.7124  139.0879  166.2265 N.ar    1  UNL1       -0.1058
      9 N         138.0306  138.7641  167.6561 N.ar    1  UNL1       -0.0923
     10 C         139.0548  139.7487  168.1376 C.ar    1  UNL1        0.3086
     11 O         139.3695  140.6810  167.0055 O.2     1  UNL1       -0.4049
     12 N         139.6582  139.7931  169.5101 N.pl3   1  UNL1       -0.2871
     13 H         139.5436  139.0313  170.1231 H       1  UNL1        0.1512
     14 C         140.4362  140.9983  169.9487 C.3     1  UNL1        0.0925
     15 C         141.8719  140.8556  170.3588 C.3     1  UNL1        0.0386
     16 C         142.9658  141.1726  169.3826 C.3     1  UNL1        0.0738
     17 N         142.7607  140.9202  167.9182 N.3     1  UNL1       -0.2726
     18 C         142.5879  142.0737  166.9752 C.3     1  UNL1        0.0721
     19 C         142.3827  141.8212  165.5110 C.3     1  UNL1        0.0174
     20 C         142.3504  140.4151  164.9897 C.3     1  UNL1        0.0029
     21 C         142.5232  139.2615  165.9327 C.3     1  UNL1        0.0174
     22 C         142.7283  139.5140  167.3970 C.3     1  UNL1        0.0721
     23 N         138.5325  142.9145  160.4373 N.am    1  UNL1       -0.2803
     24 C         139.8181  143.4075  159.8419 C.2     1  UNL1        0.2517
     25 O         141.1054  143.2399  160.5935 O.2     1  UNL1       -0.2697
     26 H         137.6876  143.0245  159.9441 H       1  UNL1        0.1552
     27 C         139.8163  144.0679  158.4952 C.ar    1  UNL1        0.0811
     28 C         139.0852  143.4331  157.3495 C.ar    1  UNL1        0.0068
     29 C         139.0835  144.0936  156.0027 C.ar    1  UNL1        0.0003
     30 C         139.8128  145.3889  155.8017 C.ar    1  UNL1        0.0023
     31 C         140.5439  146.0236  156.9473 C.ar    1  UNL1        0.0298
     32 C         140.5456  145.3632  158.2941 C.ar    1  UNL1        0.1445
     33 F         141.2767  145.9980  159.4397 F       1  UNL1       -0.2040
     34 C         138.7425  137.6501  162.7357 C.3     1  UNL1        0.0050
     35 C         139.4878  138.7624  163.4117 C.3     1  UNL1        0.0266
@<TRIPOS>BOND
     1    34    35    1
     2    35     1    1
     3     1     2   ar
     4     2     3   ar
     5     3    23    1
     6    23    24   am
     7    24    25    2
     8    24    27    1
     9    27    28   ar
    10    28    29   ar
    11    29    30   ar
    12    30    31   ar
    13    31    32   ar
    14    32    33    1
    15     3     4   ar
    16     4     5   ar
    17     5     6   ar
    18     6     7    1
    19     7     8   ar
    20     8     9   ar
    21     9    10   ar
    22    10    12    1
    23    12    14    1
    24    14    15    1
    25    15    16    1
    26    16    17    1
    27    17    18    1
    28    18    19    1
    29    19    20    1
    30    20    21    1
    31    21    22    1
    32    10    11   ar
    33     6     1   ar
    34    11     7   ar
    35    32    27   ar
    36    22    17    1
    37    23    26    1
    38    12    13    1
@<TRIPOS>MOLECULE
*****
 35 38 0 0 0
SMALL
GASTEIGER

@<TRIPOS>ATOM
      1 C         143.9440  142.5764  161.6852 C.ar    1  UNL1       -0.0164
      2 C         144.8104  142.6766  160.4649 C.ar    1  UNL1        0.0106
      3 C         144.1881  142.6636  159.1001 C.ar    1  UNL1        0.0502
      4 C         142.6994  142.5504  158.9557 C.ar    1  UNL1        0.0148
      5 C         141.8330  142.4503  160.1760 C.ar    1  UNL1        0.0057
      6 C         142.4552  142.4633  161.5408 C.ar    1  UNL1        0.0513
      7 C         141.5887  142.3632  162.7611 C.ar    1  UNL1        0.2509
      8 N         140.9991  143.5144  163.5206 N.ar    1  UNL1       -0.1058
      9 N         140.2057  142.9570  164.6651 N.ar    1  UNL1       -0.0923
     10 C         140.3050  141.4611  164.6129 C.ar    1  UNL1        0.3086
     11 O         141.1598  141.0942  163.4362 O.2     1  UNL1       -0.4049
     12 N         139.6624  140.5009  165.5695 N.pl3   1  UNL1       -0.2871
     13 H         138.8652  140.7731  166.0790 H       1  UNL1        0.1512
     14 C         140.2345  139.1260  165.7497 C.3     1  UNL1        0.0925
     15 C         139.9256  138.0486  164.7528 C.3     1  UNL1        0.0386
     16 C         141.0417  137.2871  164.1015 C.3     1  UNL1        0.0738
     17 N         141.7441  137.8611  162.9067 N.3     1  UNL1       -0.2726
     18 C         143.1705  138.3108  163.0196 C.3     1  UNL1        0.0721
     19 C         143.8728  138.8847  161.8248 C.3     1  UNL1        0.0174
     20 C         143.1485  139.0089  160.5171 C.3     1  UNL1        0.0029
     21 C         141.7221  138.5592  160.4043 C.3     1  UNL1        0.0174
     22 C         141.0197  137.9852  161.5990 C.3     1  UNL1        0.0721
     23 N         145.0546  142.7637  157.8797 N.am    1  UNL1       -0.2803
     24 C         145.3921  141.5299  157.0963 C.2     1  UNL1        0.2517
     25 O         144.8631  140.1959  157.5332 O.2     1  UNL1       -0.2697
     26 H         145.4018  143.6392  157.5930 H       1  UNL1        0.1552
     27 C         146.2585  141.6299  155.8760 C.ar    1  UNL1        0.0811
     28 C         145.7388  141.1675  154.5471 C.ar    1  UNL1        0.0068
     29 C         146.6053  141.2676  153.3268 C.ar    1  UNL1        0.0003
     30 C         147.9915  141.8301  153.4353 C.ar    1  UNL1        0.0023
     31 C         148.5113  142.2926  154.7642 C.ar    1  UNL1        0.0298
     32 C         147.6449  142.1925  155.9845 C.ar    1  UNL1        0.1445
     33 F         148.1647  142.6550  157.3134 F       1  UNL1       -0.2040
     34 C         145.7442  141.7091  163.3456 C.3     1  UNL1        0.0050
     35 C         144.5662  142.5894  163.0500 C.3     1  UNL1        0.0266
@<TRIPOS>BOND
     1    34    35    1
     2    35     1    1
     3     1     2   ar
     4     2     3   ar
     5     3    23    1
     6    23    24   am
     7    24    25    2
     8    24    27    1
     9    27    28   ar
    10    28    29   ar
    11    29    30   ar
    12    30    31   ar
    13    31    32   ar
    14    32    33    1
    15     3     4   ar
    16     4     5   ar
    17     5     6   ar
    18     6     7    1
    19     7     8   ar
    20     8     9   ar
    21     9    10   ar
    22    10    12    1
    23    12    14    1
    24    14    15    1
    25    15    16    1
    26    16    17    1
    27    17    18    1
    28    18    19    1
    29    19    20    1
    30    20    21    1
    31    21    22    1
    32    10    11   ar
    33     6     1   ar
    34    11     7   ar
    35    32    27   ar
    36    22    17    1
    37    23    26    1
    38    12    13    1
@<TRIPOS>MOLECULE
*****
 35 38 0 0 0
SMALL
GASTEIGER

@<TRIPOS>ATOM
      1 C         138.7233  139.9290  163.7365 C.ar    1  UNL1       -0.0164
      2 C         139.0769  139.7959  162.2849 C.ar    1  UNL1        0.0106
      3 C         139.8947  138.6290  161.8162 C.ar    1  UNL1        0.0502
      4 C         140.3589  137.5954  162.7990 C.ar    1  UNL1        0.0148
      5 C         140.0053  137.7286  164.2506 C.ar    1  UNL1        0.0057
      6 C         139.1875  138.8954  164.7193 C.ar    1  UNL1        0.0513
      7 C         138.8339  139.0285  166.1710 C.ar    1  UNL1        0.2509
      8 N         137.5952  138.4969  166.8291 N.ar    1  UNL1       -0.1058
      9 N         137.6527  138.8565  168.2843 N.ar    1  UNL1       -0.0923
     10 C         138.9270  139.6104  168.5255 C.ar    1  UNL1        0.3086
     11 O         139.6569  139.7166  167.2194 O.2     1  UNL1       -0.4049
     12 N         139.3899  140.1611  169.8417 N.pl3   1  UNL1       -0.2871
     13 H         138.7886  140.7279  170.3770 H       1  UNL1        0.1512
     14 C         140.7688  139.8484  170.3423 C.3     1  UNL1        0.0925
     15 C         141.7308  140.9614  170.6350 C.3     1  UNL1        0.0386
     16 C         141.5741  142.2873  169.9513 C.3     1  UNL1        0.0738
     17 N         141.4917  142.3545  168.4550 N.3     1  UNL1       -0.2726
     18 C         142.5927  141.7761  167.6165 C.3     1  UNL1        0.0721
     19 C         142.5103  141.8434  166.1202 C.3     1  UNL1        0.0174
     20 C         141.3269  142.4891  165.4625 C.3     1  UNL1        0.0029
     21 C         140.2259  143.0675  166.3011 C.3     1  UNL1        0.0174
     22 C         140.3083  143.0003  167.7974 C.3     1  UNL1        0.0721
     23 N         140.2483  138.4959  160.3645 N.am    1  UNL1       -0.2803
     24 C         141.4126  139.2571  159.8033 C.2     1  UNL1        0.2517
     25 O         142.2234  140.1515  160.6938 O.2     1  UNL1       -0.2697
     26 H         139.7162  137.9089  159.7800 H       1  UNL1        0.1552
     27 C         141.7663  139.1240  158.3517 C.ar    1  UNL1        0.0811
     28 C         141.3515  140.1872  157.3782 C.ar    1  UNL1        0.0068
     29 C         141.7052  140.0540  155.9265 C.ar    1  UNL1        0.0003
     30 C         142.4735  138.8578  155.4484 C.ar    1  UNL1        0.0023
     31 C         142.8882  137.7946  156.4219 C.ar    1  UNL1        0.0298
     32 C         142.5346  137.9277  157.8735 C.ar    1  UNL1        0.1445
     33 F         142.9493  136.8646  158.8471 F       1  UNL1       -0.2040
     34 C         137.5549  142.1980  163.2501 C.3     1  UNL1        0.0050
     35 C         137.9055  141.0959  164.2052 C.3     1  UNL1        0.0266
@<TRIPOS>BOND
     1    34    35    1
     2    35     1    1
     3     1     2   ar
     4     2     3   ar
     5     3    23    1
     6    23    24   am
     7    24    25    2
     8    24    27    1
     9    27    28   ar
    10    28    29   ar
    11    29    30   ar
    12    30    31   ar
    13    31    32   ar
    14    32    33    1
    15     3     4   ar
    16     4     5   ar
    17     5     6   ar
    18     6     7    1
    19     7     8   ar
    20     8     9   ar
    21     9    10   ar
    22    10    12    1
    23    12    14    1
    24    14    15    1
    25    15    16    1
    26    16    17    1
    27    17    18    1
    28    18    19    1
    29    19    20    1
    30    20    21    1
    31    21    22    1
    32    10    11   ar
    33     6     1   ar
    34    11     7   ar
    35    32    27   ar
    36    22    17    1
    37    23    26    1
    38    12    13    1
@<TRIPOS>MOLECULE
*****
 35 38 0 0 0
SMALL
GASTEIGER

@<TRIPOS>ATOM
      1 C         137.9358  140.9435  163.4114 C.ar    1  UNL1       -0.0164
      2 C         137.7298  141.0198  161.9276 C.ar    1  UNL1        0.0106
      3 C         137.9379  139.8013  161.0778 C.ar    1  UNL1        0.0502
      4 C         138.3520  138.5066  161.7119 C.ar    1  UNL1        0.0148
      5 C         138.5580  138.4303  163.1957 C.ar    1  UNL1        0.0057
      6 C         138.3499  139.6488  164.0454 C.ar    1  UNL1        0.0513
      7 C         138.5559  139.5724  165.5293 C.ar    1  UNL1        0.2509
      8 N         137.6686  138.8609  166.5072 N.ar    1  UNL1       -0.1058
      9 N         138.2497  139.0430  167.8780 N.ar    1  UNL1       -0.0923
     10 C         139.4963  139.8671  167.7473 C.ar    1  UNL1        0.3086
     11 O         139.6855  140.1943  166.2958 O.2     1  UNL1       -0.4049
     12 N         140.3956  140.2897  168.8709 N.pl3   1  UNL1       -0.2871
     13 H         140.4556  139.7413  169.6863 H       1  UNL1        0.1512
     14 C         141.2035  141.5480  168.7522 C.3     1  UNL1        0.0925
     15 C         142.6284  141.4834  168.2882 C.3     1  UNL1        0.0386
     16 C         143.0539  142.2404  167.0652 C.3     1  UNL1        0.0738
     17 N         142.5914  141.7959  165.7092 N.3     1  UNL1       -0.2726
     18 C         141.8659  142.7548  164.8125 C.3     1  UNL1        0.0721
     19 C         141.4034  142.3103  163.4566 C.3     1  UNL1        0.0174
     20 C         141.6665  140.9067  162.9974 C.3     1  UNL1        0.0029
     21 C         142.3919  139.9478  163.8940 C.3     1  UNL1        0.0174
     22 C         142.8545  140.3923  165.2500 C.3     1  UNL1        0.0721
     23 N         137.7319  139.8777  159.5940 N.am    1  UNL1       -0.2803
     24 C         138.8922  140.1710  158.6898 C.2     1  UNL1        0.2517
     25 O         140.2586  140.3881  159.2695 O.2     1  UNL1       -0.2697
     26 H         136.8351  139.7352  159.2135 H       1  UNL1        0.1552
     27 C         138.6863  140.2474  157.2060 C.ar    1  UNL1        0.0811
     28 C         139.2671  139.1914  156.3129 C.ar    1  UNL1        0.0068
     29 C         139.0611  139.2678  154.8290 C.ar    1  UNL1        0.0003
     30 C         138.2743  140.4001  154.2383 C.ar    1  UNL1        0.0023
     31 C         137.6935  141.4560  155.1315 C.ar    1  UNL1        0.0298
     32 C         137.8995  141.3797  156.6153 C.ar    1  UNL1        0.1445
     33 F         137.3187  142.4356  157.5084 F       1  UNL1       -0.2040
     34 C         137.8466  143.5286  163.6545 C.3     1  UNL1        0.0050
     35 C         137.7276  142.1620  164.2611 C.3     1  UNL1        0.0266
@<TRIPOS>BOND
     1    34    35    1
     2    35     1    1
     3     1     2   ar
     4     2     3   ar
     5     3    23    1
     6    23    24   am
     7    24    25    2
     8    24    27    1
     9    27    28   ar
    10    28    29   ar
    11    29    30   ar
    12    30    31   ar
    13    31    32   ar
    14    32    33    1
    15     3     4   ar
    16     4     5   ar
    17     5     6   ar
    18     6     7    1
    19     7     8   ar
    20     8     9   ar
    21     9    10   ar
    22    10    12    1
    23    12    14    1
    24    14    15    1
    25    15    16    1
    26    16    17    1
    27    17    18    1
    28    18    19    1
    29    19    20    1
    30    20    21    1
    31    21    22    1
    32    10    11   ar
    33     6     1   ar
    34    11     7   ar
    35    32    27   ar
    36    22    17    1
    37    23    26    1
    38    12    13    1
@<TRIPOS>MOLECULE
*****
 35 38 0 0 0
SMALL
GASTEIGER

@<TRIPOS>ATOM
      1 C         139.7917  140.5644  162.1518 C.ar    1  UNL1       -0.0164
      2 C         139.9787  140.3469  163.6241 C.ar    1  UNL1        0.0106
      3 C         139.0522  141.0050  164.6032 C.ar    1  UNL1        0.0502
      4 C         137.9387  141.8806  164.1099 C.ar    1  UNL1        0.0148
      5 C         137.7516  142.0981  162.6377 C.ar    1  UNL1        0.0057
      6 C         138.6781  141.4400  161.6586 C.ar    1  UNL1        0.0513
      7 C         138.4910  141.6575  160.1863 C.ar    1  UNL1        0.2509
      8 N         137.8180  140.7139  159.2341 N.ar    1  UNL1       -0.1058
      9 N         137.8551  141.3301  157.8670 N.ar    1  UNL1       -0.0923
     10 C         138.5511  142.6546  157.9742 C.ar    1  UNL1        0.3086
     11 O         138.9441  142.8569  159.4076 O.2     1  UNL1       -0.4049
     12 N         138.8088  143.6090  156.8462 N.pl3   1  UNL1       -0.2871
     13 H         138.1523  143.6994  156.1181 H       1  UNL1        0.1512
     14 C         140.0667  144.4259  156.8275 C.3     1  UNL1        0.0925
     15 C         140.2525  145.5395  157.8150 C.3     1  UNL1        0.0386
     16 C         141.3902  145.4939  158.7915 C.3     1  UNL1        0.0738
     17 N         141.1353  145.1270  160.2235 N.3     1  UNL1       -0.2726
     18 C         141.9702  144.0726  160.8877 C.3     1  UNL1        0.0721
     19 C         141.7153  143.7058  162.3196 C.3     1  UNL1        0.0174
     20 C         140.6254  144.3933  163.0874 C.3     1  UNL1        0.0029
     21 C         139.7905  145.4476  162.4232 C.3     1  UNL1        0.0174
     22 C         140.0454  145.8145  160.9912 C.3     1  UNL1        0.0721
     23 N         139.2393  140.7875  166.0755 N.am    1  UNL1       -0.2803
     24 C         140.2348  141.6133  166.8351 C.2     1  UNL1        0.2517
     25 O         141.0431  142.6567  166.1224 O.2     1  UNL1       -0.2697
     26 H         138.7088  140.1026  166.5433 H       1  UNL1        0.1552
     27 C         140.4219  141.3958  168.3074 C.ar    1  UNL1        0.0811
     28 C         140.6868  140.0166  168.8341 C.ar    1  UNL1        0.0068
     29 C         140.8739  139.7991  170.3065 C.ar    1  UNL1        0.0003
     30 C         140.7962  140.9609  171.2520 C.ar    1  UNL1        0.0023
     31 C         140.5313  142.3402  170.7253 C.ar    1  UNL1        0.0298
     32 C         140.3442  142.5577  169.2531 C.ar    1  UNL1        0.1445
     33 F         140.0793  143.9369  168.7263 F       1  UNL1       -0.2040
     34 C         140.7980  138.4100  161.1051 C.3     1  UNL1        0.0050
     35 C         140.7181  139.9063  161.1728 C.3     1  UNL1        0.0266
@<TRIPOS>BOND
     1    34    35    1
     2    35     1    1
     3     1     2   ar
     4     2     3   ar
     5     3    23    1
     6    23    24   am
     7    24    25    2
     8    24    27    1
     9    27    28   ar
    10    28    29   ar
    11    29    30   ar
    12    30    31   ar
    13    31    32   ar
    14    32    33    1
    15     3     4   ar
    16     4     5   ar
    17     5     6   ar
    18     6     7    1
    19     7     8   ar
    20     8     9   ar
    21     9    10   ar
    22    10    12    1
    23    12    14    1
    24    14    15    1
    25    15    16    1
    26    16    17    1
    27    17    18    1
    28    18    19    1
    29    19    20    1
    30    20    21    1
    31    21    22    1
    32    10    11   ar
    33     6     1   ar
    34    11     7   ar
    35    32    27   ar
    36    22    17    1
    37    23    26    1
    38    12    13    1
@<TRIPOS>MOLECULE
*****
 35 38 0 0 0
SMALL
GASTEIGER

@<TRIPOS>ATOM
      1 C         140.3381  140.1354  162.9994 C.ar    1  UNL1       -0.0164
      2 C         141.1622  140.1246  161.7462 C.ar    1  UNL1        0.0106
      3 C         141.9373  138.8971  161.3688 C.ar    1  UNL1        0.0502
      4 C         141.8884  137.6804  162.2447 C.ar    1  UNL1        0.0148
      5 C         141.0643  137.6913  163.4980 C.ar    1  UNL1        0.0057
      6 C         140.2892  138.9188  163.8753 C.ar    1  UNL1        0.0513
      7 C         139.4650  138.9295  165.1287 C.ar    1  UNL1        0.2509
      8 N         138.0885  138.3542  165.2837 N.ar    1  UNL1       -0.1058
      9 N         137.6455  138.5866  166.6978 N.ar    1  UNL1       -0.0923
     10 C         138.7483  139.3057  167.4168 C.ar    1  UNL1        0.3086
     11 O         139.8728  139.5176  166.4470 O.2     1  UNL1       -0.4049
     12 N         138.7298  139.7370  168.8533 N.pl3   1  UNL1       -0.2871
     13 H         137.9588  139.5154  169.4240 H       1  UNL1        0.1512
     14 C         139.8861  140.5061  169.4204 C.3     1  UNL1        0.0925
     15 C         141.1289  139.7840  169.8493 C.3     1  UNL1        0.0386
     16 C         142.4722  140.2598  169.3810 C.3     1  UNL1        0.0738
     17 N         142.8328  140.1756  167.9274 N.3     1  UNL1       -0.2726
     18 C         142.8805  141.4212  167.0931 C.3     1  UNL1        0.0721
     19 C         143.2411  141.3370  165.6396 C.3     1  UNL1        0.0174
     20 C         143.5540  140.0071  165.0203 C.3     1  UNL1        0.0029
     21 C         143.5063  138.7615  165.8545 C.3     1  UNL1        0.0174
     22 C         143.1457  138.8457  167.3082 C.3     1  UNL1        0.0721
     23 N         142.7615  138.8863  160.1155 N.am    1  UNL1       -0.2803
     24 C         142.1131  138.5975  158.7941 C.2     1  UNL1        0.2517
     25 O         140.6406  138.3195  158.7259 O.2     1  UNL1       -0.2697
     26 H         143.7279  139.0688  160.1602 H       1  UNL1        0.1552
     27 C         142.9372  138.5868  157.5408 C.ar    1  UNL1        0.0811
     28 C         143.6054  139.8451  157.0717 C.ar    1  UNL1        0.0068
     29 C         144.4295  139.8342  155.8183 C.ar    1  UNL1        0.0003
     30 C         144.5853  138.5651  155.0341 C.ar    1  UNL1        0.0023
     31 C         143.9170  137.3068  155.5032 C.ar    1  UNL1        0.0298
     32 C         143.0930  137.3176  156.7565 C.ar    1  UNL1        0.1445
     33 F         142.4247  136.0593  157.2256 F       1  UNL1       -0.2040
     34 C         140.2349  142.4719  164.1309 C.3     1  UNL1        0.0050
     35 C         139.5630  141.3629  163.3768 C.3     1  UNL1        0.0266
@<TRIPOS>BOND
     1    34    35    1
     2    35     1    1
     3     1     2   ar
     4     2     3   ar
     5     3    23    1
     6    23    24   am
     7    24    25    2
     8    24    27    1
     9    27    28   ar
    10    28    29   ar
    11    29    30   ar
    12    30    31   ar
    13    31    32   ar
    14    32    33    1
    15     3     4   ar
    16     4     5   ar
    17     5     6   ar
    18     6     7    1
    19     7     8   ar
    20     8     9   ar
    21     9    10   ar
    22    10    12    1
    23    12    14    1
    24    14    15    1
    25    15    16    1
    26    16    17    1
    27    17    18    1
    28    18    19    1
    29    19    20    1
    30    20    21    1
    31    21    22    1
    32    10    11   ar
    33     6     1   ar
    34    11     7   ar
    35    32    27   ar
    36    22    17    1
    37    23    26    1
    38    12    13    1
@<TRIPOS>MOLECULE
*****
 35 38 0 0 0
SMALL
GASTEIGER

@<TRIPOS>ATOM
      1 C         140.2697  142.9496  161.5757 C.ar    1  UNL1       -0.0164
      2 C         139.8842  142.5059  162.9557 C.ar    1  UNL1        0.0106
      3 C         140.1538  143.3961  164.1325 C.ar    1  UNL1        0.0502
      4 C         140.8090  144.7300  163.9292 C.ar    1  UNL1        0.0148
      5 C         141.1945  145.1737  162.5492 C.ar    1  UNL1        0.0057
      6 C         140.9248  144.2835  161.3724 C.ar    1  UNL1        0.0513
      7 C         141.3104  144.7273  159.9924 C.ar    1  UNL1        0.2509
      8 N         142.5518  144.3266  159.2520 N.ar    1  UNL1       -0.1058
      9 N         142.5308  145.0013  157.9125 N.ar    1  UNL1       -0.0923
     10 C         141.2763  145.8191  157.8250 C.ar    1  UNL1        0.3086
     11 O         140.5221  145.6497  159.1104 O.2     1  UNL1       -0.4049
     12 N         140.8508  146.6587  156.6571 N.pl3   1  UNL1       -0.2871
     13 H         141.5261  147.1312  156.1185 H       1  UNL1        0.1512
     14 C         139.3965  146.7785  156.3099 C.3     1  UNL1        0.0925
     15 C         138.9739  147.5869  155.1191 C.3     1  UNL1        0.0386
     16 C         139.9252  148.5704  154.5045 C.3     1  UNL1        0.0738
     17 N         139.4657  149.9638  154.1925 N.3     1  UNL1       -0.2726
     18 C         139.5203  150.4737  152.7829 C.3     1  UNL1        0.0721
     19 C         139.0608  151.8671  152.4710 C.3     1  UNL1        0.0174
     20 C         138.5467  152.7507  153.5688 C.3     1  UNL1        0.0029
     21 C         138.4921  152.2408  154.9783 C.3     1  UNL1        0.0174
     22 C         138.9516  150.8473  155.2903 C.3     1  UNL1        0.0721
     23 N         139.7683  142.9523  165.5125 N.am    1  UNL1       -0.2803
     24 C         140.8296  142.5713  166.5017 C.2     1  UNL1        0.2517
     25 O         142.2765  142.6341  166.1108 O.2     1  UNL1       -0.2697
     26 H         138.8187  142.9111  165.7690 H       1  UNL1        0.1552
     27 C         140.4442  142.1276  167.8817 C.ar    1  UNL1        0.0811
     28 C         140.6711  143.0370  169.0527 C.ar    1  UNL1        0.0068
     29 C         140.2856  142.5932  170.4328 C.ar    1  UNL1        0.0003
     30 C         139.6732  141.2400  170.6417 C.ar    1  UNL1        0.0023
     31 C         139.4463  140.3305  169.4707 C.ar    1  UNL1        0.0298
     32 C         139.8317  140.7743  168.0907 C.ar    1  UNL1        0.1445
     33 F         139.6048  139.8648  166.9196 F       1  UNL1       -0.2040
     34 C         138.5985  141.8897  159.8924 C.3     1  UNL1        0.0050
     35 C         140.0001  142.0593  160.3989 C.3     1  UNL1        0.0266
@<TRIPOS>BOND
     1    34    35    1
     2    35     1    1
     3     1     2   ar
     4     2     3   ar
     5     3    23    1
     6    23    24   am
     7    24    25    2
     8    24    27    1
     9    27    28   ar
    10    28    29   ar
    11    29    30   ar
    12    30    31   ar
    13    31    32   ar
    14    32    33    1
    15     3     4   ar
    16     4     5   ar
    17     5     6   ar
    18     6     7    1
    19     7     8   ar
    20     8     9   ar
    21     9    10   ar
    22    10    12    1
    23    12    14    1
    24    14    15    1
    25    15    16    1
    26    16    17    1
    27    17    18    1
    28    18    19    1
    29    19    20    1
    30    20    21    1
    31    21    22    1
    32    10    11   ar
    33     6     1   ar
    34    11     7   ar
    35    32    27   ar
    36    22    17    1
    37    23    26    1
    38    12    13    1
@<TRIPOS>MOLECULE
*****
 35 38 0 0 0
SMALL
GASTEIGER

@<TRIPOS>ATOM
      1 C         142.2468  139.2175  161.0383 C.ar    1  UNL1       -0.0164
      2 C         142.5200  138.0794  160.1001 C.ar    1  UNL1        0.0106
      3 C         142.6748  138.3392  158.6309 C.ar    1  UNL1        0.0502
      4 C         142.5565  139.7370  158.0999 C.ar    1  UNL1        0.0148
      5 C         142.2833  140.8751  159.0380 C.ar    1  UNL1        0.0057
      6 C         142.1285  140.6153  160.5072 C.ar    1  UNL1        0.0513
      7 C         141.8553  141.7534  161.4454 C.ar    1  UNL1        0.2509
      8 N         142.8656  142.4409  162.3153 N.ar    1  UNL1       -0.1058
      9 N         142.1586  143.5162  163.0859 N.ar    1  UNL1       -0.0923
     10 C         140.7113  143.4933  162.6923 C.ar    1  UNL1        0.3086
     11 O         140.5239  142.4038  161.6784 O.2     1  UNL1       -0.4049
     12 N         139.6396  144.4006  163.2199 N.pl3   1  UNL1       -0.2871
     13 H         139.8840  145.2408  163.6709 H       1  UNL1        0.1512
     14 C         138.1955  144.0276  163.0602 C.3     1  UNL1        0.0925
     15 C         137.6541  142.8116  163.7518 C.3     1  UNL1        0.0386
     16 C         137.4019  141.5553  162.9722 C.3     1  UNL1        0.0738
     17 N         137.9559  140.2481  163.4564 N.3     1  UNL1       -0.2726
     18 C         138.1705  139.1206  162.4907 C.3     1  UNL1        0.0721
     19 C         138.7245  137.8135  162.9750 C.3     1  UNL1        0.0174
     20 C         139.0638  137.6338  164.4250 C.3     1  UNL1        0.0029
     21 C         138.8492  138.7613  165.3907 C.3     1  UNL1        0.0174
     22 C         138.2952  140.0685  164.9064 C.3     1  UNL1        0.0721
     23 N         142.9480  137.2011  157.6927 N.am    1  UNL1       -0.2803
     24 C         141.8406  136.6421  156.8493 C.2     1  UNL1        0.2517
     25 O         140.4601  137.2212  156.9441 O.2     1  UNL1       -0.2697
     26 H         143.8540  136.8210  157.6306 H       1  UNL1        0.1552
     27 C         142.1137  135.5040  155.9112 C.ar    1  UNL1        0.0811
     28 C         141.7465  135.6222  154.4617 C.ar    1  UNL1        0.0068
     29 C         142.0197  134.4841  153.5235 C.ar    1  UNL1        0.0003
     30 C         142.6600  133.2277  154.0349 C.ar    1  UNL1        0.0023
     31 C         143.0272  133.1095  155.4845 C.ar    1  UNL1        0.0298
     32 C         142.7541  134.2476  156.4226 C.ar    1  UNL1        0.1445
     33 F         143.1213  134.1293  157.8721 F       1  UNL1       -0.2040
     34 C         143.3064  138.7787  163.3695 C.3     1  UNL1        0.0050
     35 C         142.0920  138.9577  162.5075 C.3     1  UNL1        0.0266
@<TRIPOS>BOND
     1    34    35    1
     2    35     1    1
     3     1     2   ar
     4     2     3   ar
     5     3    23    1
     6    23    24   am
     7    24    25    2
     8    24    27    1
     9    27    28   ar
    10    28    29   ar
    11    29    30   ar
    12    30    31   ar
    13    31    32   ar
    14    32    33    1
    15     3     4   ar
    16     4     5   ar
    17     5     6   ar
    18     6     7    1
    19     7     8   ar
    20     8     9   ar
    21     9    10   ar
    22    10    12    1
    23    12    14    1
    24    14    15    1
    25    15    16    1
    26    16    17    1
    27    17    18    1
    28    18    19    1
    29    19    20    1
    30    20    21    1
    31    21    22    1
    32    10    11   ar
    33     6     1   ar
    34    11     7   ar
    35    32    27   ar
    36    22    17    1
    37    23    26    1
    38    12    13    1
