@<TRIPOS>MOLECULE
*****
 20 23 0 0 0
SMALL
GASTEIGER

@<TRIPOS>ATOM
      1 N         142.9062  137.9991  170.4910 N.pl3   1  UNL1       -0.3375
      2 C         142.5547  138.9498  169.3853 C.ar    1  UNL1        0.1567
      3 N         143.1696  138.9772  168.0173 N.ar    1  UNL1       -0.2245
      4 C         142.5215  140.0843  167.2400 C.ar    1  UNL1        0.0889
      5 C         142.7248  140.5792  165.8386 C.ar    1  UNL1        0.0151
      6 C         141.9127  141.7310  165.3248 C.ar    1  UNL1       -0.0232
      7 C         140.8974  142.3877  166.2122 C.ar    1  UNL1       -0.0241
      8 C         140.6941  141.8929  167.6136 C.ar    1  UNL1        0.0035
      9 C         141.5061  140.7411  168.1275 C.ar    1  UNL1        0.0494
     10 S         141.5267  140.0399  169.4533 S.2     1  UNL1       -0.0520
     11 C         139.9895  143.5406  165.9011 C.3     1  UNL1        0.0434
     12 C         139.8728  144.3213  164.6255 C.3     1  UNL1        0.0768
     13 N         140.6351  144.1420  163.3463 N.3     1  UNL1       -0.2734
     14 C         141.7024  143.1377  163.0264 C.3     1  UNL1        0.0768
     15 C         142.2710  142.0647  163.9069 C.3     1  UNL1        0.0434
     16 H         143.5987  137.3137  170.3495 H       1  UNL1        0.1442
     17 H         142.4444  138.0604  171.3584 H       1  UNL1        0.1442
     18 C         140.2836  145.0926  162.2405 C.3     1  UNL1        0.0576
     19 C         139.6313  146.3611  161.7762 C.3     1  UNL1        0.0173
     20 C         140.3271  145.4709  160.7896 C.3     1  UNL1        0.0173
@<TRIPOS>BOND
     1     1     2    1
     2     2     3   ar
     3     3     4   ar
     4     4     5   ar
     5     5     6   ar
     6     6     7   ar
     7     7     8   ar
     8     8     9   ar
     9     9    10   ar
    10     7    11    1
    11    11    12    1
    12    12    13    1
    13    13    18    1
    14    18    19    1
    15    19    20    1
    16    13    14    1
    17    14    15    1
    18    10     2   ar
    19    20    18    1
    20     9     4   ar
    21    15     6    1
    22     1    16    1
    23     1    17    1
@<TRIPOS>MOLECULE
*****
 20 23 0 0 0
SMALL
GASTEIGER

@<TRIPOS>ATOM
      1 N         143.5119  143.8947  171.3734 N.pl3   1  UNL1       -0.3375
      2 C         142.9218  143.2000  170.1820 C.ar    1  UNL1        0.1567
      3 N         143.6790  142.7042  168.9858 N.ar    1  UNL1       -0.2245
      4 C         142.6961  142.0770  168.0423 C.ar    1  UNL1        0.0889
      5 C         142.8675  141.4213  166.7041 C.ar    1  UNL1        0.0151
      6 C         141.6740  140.8737  165.9789 C.ar    1  UNL1       -0.0232
      7 C         140.3093  140.9818  166.5919 C.ar    1  UNL1       -0.0241
      8 C         140.1379  141.6374  167.9300 C.ar    1  UNL1        0.0035
      9 C         141.3313  142.1850  168.6553 C.ar    1  UNL1        0.0494
     10 S         141.4708  142.8791  169.9777 S.2     1  UNL1       -0.0520
     11 C         138.9970  140.5060  166.0427 C.3     1  UNL1        0.0434
     12 C         138.7254  139.8047  164.7448 C.3     1  UNL1        0.0768
     13 N         139.6990  139.4060  163.6757 N.3     1  UNL1       -0.2734
     14 C         141.1846  139.6100  163.6402 C.3     1  UNL1        0.0768
     15 C         142.0636  140.2632  164.6653 C.3     1  UNL1        0.0434
     16 H         144.4812  144.0612  171.4159 H       1  UNL1        0.1442
     17 H         142.9298  144.1840  172.1127 H       1  UNL1        0.1442
     18 C         139.1089  138.7113  162.4844 C.3     1  UNL1        0.0576
     19 C         139.2768  138.0763  161.1358 C.3     1  UNL1        0.0173
     20 C         137.9189  138.1431  161.7695 C.3     1  UNL1        0.0173
@<TRIPOS>BOND
     1     1     2    1
     2     2     3   ar
     3     3     4   ar
     4     4     5   ar
     5     5     6   ar
     6     6     7   ar
     7     7     8   ar
     8     8     9   ar
     9     9    10   ar
    10     7    11    1
    11    11    12    1
    12    12    13    1
    13    13    18    1
    14    18    19    1
    15    19    20    1
    16    13    14    1
    17    14    15    1
    18    10     2   ar
    19    20    18    1
    20     9     4   ar
    21    15     6    1
    22     1    16    1
    23     1    17    1
@<TRIPOS>MOLECULE
*****
 20 23 0 0 0
SMALL
GASTEIGER

@<TRIPOS>ATOM
      1 N         142.6439  140.3361  171.8026 N.pl3   1  UNL1       -0.3375
      2 C         142.1179  140.2260  170.4021 C.ar    1  UNL1        0.1567
      3 N         142.9451  140.1135  169.1559 N.ar    1  UNL1       -0.2245
      4 C         142.0108  140.0270  167.9856 C.ar    1  UNL1        0.0889
      5 C         142.2577  139.9021  166.5113 C.ar    1  UNL1        0.0151
      6 C         141.0998  139.8363  165.5599 C.ar    1  UNL1       -0.0232
      7 C         139.6952  139.8955  166.0829 C.ar    1  UNL1       -0.0241
      8 C         139.4483  140.0204  167.5571 C.ar    1  UNL1        0.0035
      9 C         140.6061  140.0862  168.5085 C.ar    1  UNL1        0.0494
     10 S         140.6724  140.2091  170.0020 S.2     1  UNL1       -0.0520
     11 C         138.4081  139.8463  165.3140 C.3     1  UNL1        0.0434
     12 C         138.2079  139.7258  163.8322 C.3     1  UNL1        0.0768
     13 N         139.2452  139.6247  162.7536 N.3     1  UNL1       -0.2734
     14 C         140.7390  139.6192  162.8900 C.3     1  UNL1        0.0768
     15 C         141.5644  139.7134  164.1390 C.3     1  UNL1        0.0434
     16 H         143.6149  140.3386  171.9649 H       1  UNL1        0.1442
     17 H         142.0181  140.4059  172.5594 H       1  UNL1        0.1442
     18 C         138.7193  139.5146  161.3531 C.3     1  UNL1        0.0576
     19 C         138.8677  139.0199  159.9449 C.3     1  UNL1        0.0173
     20 C         137.6598  139.8187  160.3357 C.3     1  UNL1        0.0173
@<TRIPOS>BOND
     1     1     2    1
     2     2     3   ar
     3     3     4   ar
     4     4     5   ar
     5     5     6   ar
     6     6     7   ar
     7     7     8   ar
     8     8     9   ar
     9     9    10   ar
    10     7    11    1
    11    11    12    1
    12    12    13    1
    13    13    18    1
    14    18    19    1
    15    19    20    1
    16    13    14    1
    17    14    15    1
    18    10     2   ar
    19    20    18    1
    20     9     4   ar
    21    15     6    1
    22     1    16    1
    23     1    17    1
@<TRIPOS>MOLECULE
*****
 20 23 0 0 0
SMALL
GASTEIGER

@<TRIPOS>ATOM
      1 N         139.1728  143.3070  171.4631 N.pl3   1  UNL1       -0.3375
      2 C         139.7583  142.7167  170.2146 C.ar    1  UNL1        0.1567
      3 N         140.1240  143.4706  168.9704 N.ar    1  UNL1       -0.2245
      4 C         140.6725  142.4888  167.9779 C.ar    1  UNL1        0.0889
      5 C         141.1929  142.6580  166.5812 C.ar    1  UNL1        0.0151
      6 C         141.6866  141.4664  165.8153 C.ar    1  UNL1       -0.0232
      7 C         141.6599  140.1059  166.4461 C.ar    1  UNL1       -0.0241
      8 C         141.1396  139.9366  167.8427 C.ar    1  UNL1        0.0035
      9 C         140.6459  141.1281  168.6086 C.ar    1  UNL1        0.0494
     10 S         140.0808  141.2690  169.9910 S.2     1  UNL1       -0.0520
     11 C         142.1010  138.7960  165.8632 C.3     1  UNL1        0.0434
     12 C         142.6777  138.5233  164.5055 C.3     1  UNL1        0.0768
     13 N         142.9557  139.4932  163.3956 N.3     1  UNL1       -0.2734
     14 C         142.7258  140.9752  163.3690 C.3     1  UNL1        0.0768
     15 C         142.1609  141.8534  164.4459 C.3     1  UNL1        0.0434
     16 H         138.9959  144.2741  171.5144 H       1  UNL1        0.1442
     17 H         138.9655  142.7272  172.2314 H       1  UNL1        0.1442
     18 C         143.5412  138.9029  162.1470 C.3     1  UNL1        0.0576
     19 C         144.0331  137.7112  161.3804 C.3     1  UNL1        0.0173
     20 C         144.0634  139.0724  160.7511 C.3     1  UNL1        0.0173
@<TRIPOS>BOND
     1     1     2    1
     2     2     3   ar
     3     3     4   ar
     4     4     5   ar
     5     5     6   ar
     6     6     7   ar
     7     7     8   ar
     8     8     9   ar
     9     9    10   ar
    10     7    11    1
    11    11    12    1
    12    12    13    1
    13    13    18    1
    14    18    19    1
    15    19    20    1
    16    13    14    1
    17    14    15    1
    18    10     2   ar
    19    20    18    1
    20     9     4   ar
    21    15     6    1
    22     1    16    1
    23     1    17    1
@<TRIPOS>MOLECULE
*****
 20 23 0 0 0
SMALL
GASTEIGER

@<TRIPOS>ATOM
      1 N         139.2247  143.2175  171.5896 N.pl3   1  UNL1       -0.3375
      2 C         139.7210  142.5696  170.3310 C.ar    1  UNL1        0.1567
      3 N         139.2472  141.2635  169.7657 N.ar    1  UNL1       -0.2245
      4 C         140.0116  141.0008  168.5021 C.ar    1  UNL1        0.0889
      5 C         139.9682  139.8678  167.5200 C.ar    1  UNL1        0.0151
      6 C         140.8712  139.8786  166.3222 C.ar    1  UNL1       -0.0232
      7 C         141.8173  141.0223  166.1066 C.ar    1  UNL1       -0.0241
      8 C         141.8607  142.1553  167.0886 C.ar    1  UNL1        0.0035
      9 C         140.9578  142.1445  168.2864 C.ar    1  UNL1        0.0494
     10 S         140.7782  143.1141  169.4168 S.2     1  UNL1       -0.0520
     11 C         142.7953  141.2289  164.9881 C.3     1  UNL1        0.0434
     12 C         143.0686  140.3427  163.8090 C.3     1  UNL1        0.0768
     13 N         142.4314  139.0312  163.4574 N.3     1  UNL1       -0.2734
     14 C         141.3635  138.2818  164.1977 C.3     1  UNL1        0.0768
     15 C         140.6691  138.6589  165.4727 C.3     1  UNL1        0.0434
     16 H         138.5240  142.7800  172.1252 H       1  UNL1        0.1442
     17 H         139.5997  144.0802  171.8800 H       1  UNL1        0.1442
     18 C         142.9276  138.3833  162.1988 C.3     1  UNL1        0.0576
     19 C         142.6500  137.7288  160.8780 C.3     1  UNL1        0.0173
     20 C         144.0649  137.9157  161.3397 C.3     1  UNL1        0.0173
@<TRIPOS>BOND
     1     1     2    1
     2     2     3   ar
     3     3     4   ar
     4     4     5   ar
     5     5     6   ar
     6     6     7   ar
     7     7     8   ar
     8     8     9   ar
     9     9    10   ar
    10     7    11    1
    11    11    12    1
    12    12    13    1
    13    13    18    1
    14    18    19    1
    15    19    20    1
    16    13    14    1
    17    14    15    1
    18    10     2   ar
    19    20    18    1
    20     9     4   ar
    21    15     6    1
    22     1    16    1
    23     1    17    1
@<TRIPOS>MOLECULE
*****
 20 23 0 0 0
SMALL
GASTEIGER

@<TRIPOS>ATOM
      1 N         140.3504  142.3018  171.8385 N.pl3   1  UNL1       -0.3375
      2 C         140.2012  141.8980  170.4016 C.ar    1  UNL1        0.1567
      3 N         140.6317  142.7017  169.2105 N.ar    1  UNL1       -0.2245
      4 C         140.2919  141.9199  167.9764 C.ar    1  UNL1        0.0889
      5 C         140.4830  142.2136  166.5178 C.ar    1  UNL1        0.0151
      6 C         140.0334  141.2203  165.4876 C.ar    1  UNL1       -0.0232
      7 C         139.3929  139.9334  165.9159 C.ar    1  UNL1       -0.0241
      8 C         139.2018  139.6397  167.3743 C.ar    1  UNL1        0.0035
      9 C         139.6513  140.6329  168.4046 C.ar    1  UNL1        0.0494
     10 S         139.5953  140.6194  169.9035 S.2     1  UNL1       -0.0520
     11 C         138.8768  138.8152  165.0595 C.3     1  UNL1        0.0434
     12 C         138.8739  138.7078  163.5633 C.3     1  UNL1        0.0768
     13 N         139.3863  139.6921  162.5541 N.3     1  UNL1       -0.2734
     14 C         140.0282  141.0268  162.7916 C.3     1  UNL1        0.0768
     15 C         140.3162  141.7070  164.0972 C.3     1  UNL1        0.0434
     16 H         140.7635  143.1659  172.0666 H       1  UNL1        0.1442
     17 H         140.0352  141.7029  172.5534 H       1  UNL1        0.1442
     18 C         139.2371  139.2882  161.1172 C.3     1  UNL1        0.0576
     19 C         139.6000  138.3823  159.9780 C.3     1  UNL1        0.0173
     20 C         138.6158  139.4945  159.7676 C.3     1  UNL1        0.0173
@<TRIPOS>BOND
     1     1     2    1
     2     2     3   ar
     3     3     4   ar
     4     4     5   ar
     5     5     6   ar
     6     6     7   ar
     7     7     8   ar
     8     8     9   ar
     9     9    10   ar
    10     7    11    1
    11    11    12    1
    12    12    13    1
    13    13    18    1
    14    18    19    1
    15    19    20    1
    16    13    14    1
    17    14    15    1
    18    10     2   ar
    19    20    18    1
    20     9     4   ar
    21    15     6    1
    22     1    16    1
    23     1    17    1
@<TRIPOS>MOLECULE
*****
 20 23 0 0 0
SMALL
GASTEIGER

@<TRIPOS>ATOM
      1 N         141.4823  145.4121  159.1632 N.pl3   1  UNL1       -0.3375
      2 C         141.5434  144.8917  160.5687 C.ar    1  UNL1        0.1567
      3 N         142.7657  144.3675  161.2625 N.ar    1  UNL1       -0.2245
      4 C         142.3707  143.9560  162.6497 C.ar    1  UNL1        0.0889
      5 C         143.1569  143.3704  163.7851 C.ar    1  UNL1        0.0151
      6 C         142.4766  143.0546  165.0842 C.ar    1  UNL1       -0.0232
      7 C         141.0102  143.3244  165.2478 C.ar    1  UNL1       -0.0241
      8 C         140.2240  143.9100  164.1125 C.ar    1  UNL1        0.0035
      9 C         140.9043  144.2258  162.8134 C.ar    1  UNL1        0.0494
     10 S         140.3930  144.8041  161.5273 S.2     1  UNL1       -0.0520
     11 C         140.1437  143.0858  166.4488 C.3     1  UNL1        0.0434
     12 C         140.5297  142.5184  167.7827 C.3     1  UNL1        0.0768
     13 N         141.8773  142.0495  168.2449 N.3     1  UNL1       -0.2734
     14 C         143.1720  142.0322  167.4876 C.3     1  UNL1        0.0768
     15 C         143.4387  142.4795  166.0809 C.3     1  UNL1        0.0434
     16 H         142.2957  145.4295  158.6089 H       1  UNL1        0.1442
     17 H         140.6287  145.7362  158.7950 H       1  UNL1        0.1442
     18 C         141.9385  141.5291  169.6504 C.3     1  UNL1        0.0576
     19 C         142.4388  140.5205  170.6416 C.3     1  UNL1        0.0173
     20 C         141.5440  141.6363  171.0937 C.3     1  UNL1        0.0173
@<TRIPOS>BOND
     1     1     2    1
     2     2     3   ar
     3     3     4   ar
     4     4     5   ar
     5     5     6   ar
     6     6     7   ar
     7     7     8   ar
     8     8     9   ar
     9     9    10   ar
    10     7    11    1
    11    11    12    1
    12    12    13    1
    13    13    18    1
    14    18    19    1
    15    19    20    1
    16    13    14    1
    17    14    15    1
    18    10     2   ar
    19    20    18    1
    20     9     4   ar
    21    15     6    1
    22     1    16    1
    23     1    17    1
@<TRIPOS>MOLECULE
*****
 20 23 0 0 0
SMALL
GASTEIGER

@<TRIPOS>ATOM
      1 N         140.4196  140.2391  171.8204 N.pl3   1  UNL1       -0.3375
      2 C         140.7519  140.0524  170.3697 C.ar    1  UNL1        0.1567
      3 N         142.0806  139.6292  169.8169 N.ar    1  UNL1       -0.2245
      4 C         141.9638  139.5714  168.3226 C.ar    1  UNL1        0.0889
      5 C         142.9521  139.2159  167.2516 C.ar    1  UNL1        0.0151
      6 C         142.5395  139.2479  165.8098 C.ar    1  UNL1       -0.0232
      7 C         141.1387  139.6353  165.4391 C.ar    1  UNL1       -0.0241
      8 C         140.1504  139.9907  166.5100 C.ar    1  UNL1        0.0035
      9 C         140.5629  139.9587  167.9518 C.ar    1  UNL1        0.0494
     10 S         139.8140  140.2560  169.2170 S.2     1  UNL1       -0.0520
     11 C         140.5250  139.7309  164.0736 C.3     1  UNL1        0.0434
     12 C         141.1609  139.4626  162.7417 C.3     1  UNL1        0.0768
     13 N         142.5671  139.0326  162.4464 N.3     1  UNL1       -0.2734
     14 C         143.6851  138.7646  163.4099 C.3     1  UNL1        0.0768
     15 C         143.6728  138.8604  164.9068 C.3     1  UNL1        0.0434
     16 H         141.1067  140.0802  172.5073 H       1  UNL1        0.1442
     17 H         139.5142  140.5206  172.0857 H       1  UNL1        0.1442
     18 C         142.8995  138.8459  160.9956 C.3     1  UNL1        0.0576
     19 C         143.3987  139.4024  159.6952 C.3     1  UNL1        0.0173
     20 C         142.9761  137.9658  159.7833 C.3     1  UNL1        0.0173
@<TRIPOS>BOND
     1     1     2    1
     2     2     3   ar
     3     3     4   ar
     4     4     5   ar
     5     5     6   ar
     6     6     7   ar
     7     7     8   ar
     8     8     9   ar
     9     9    10   ar
    10     7    11    1
    11    11    12    1
    12    12    13    1
    13    13    18    1
    14    18    19    1
    15    19    20    1
    16    13    14    1
    17    14    15    1
    18    10     2   ar
    19    20    18    1
    20     9     4   ar
    21    15     6    1
    22     1    16    1
    23     1    17    1
@<TRIPOS>MOLECULE
*****
 20 23 0 0 0
SMALL
GASTEIGER

@<TRIPOS>ATOM
      1 N         142.3002  140.5625  171.6894 N.pl3   1  UNL1       -0.3375
      2 C         142.1343  141.1097  170.3026 C.ar    1  UNL1        0.1567
      3 N         143.2027  141.1904  169.2528 N.ar    1  UNL1       -0.2245
      4 C         142.5995  141.8027  168.0236 C.ar    1  UNL1        0.0889
      5 C         143.1764  142.1277  166.6776 C.ar    1  UNL1        0.0151
      6 C         142.3119  142.7504  165.6216 C.ar    1  UNL1       -0.0232
      7 C         140.8708  143.0481  165.9116 C.ar    1  UNL1       -0.0241
      8 C         140.2938  142.7232  167.2575 C.ar    1  UNL1        0.0035
      9 C         141.1582  142.1005  168.3136 C.ar    1  UNL1        0.0494
     10 S         140.8707  141.6721  169.7221 S.2     1  UNL1       -0.0520
     11 C         139.8423  143.6616  165.0082 C.3     1  UNL1        0.0434
     12 C         140.0013  144.1287  163.5916 C.3     1  UNL1        0.0768
     13 N         141.2277  144.0978  162.7288 N.3     1  UNL1       -0.2734
     14 C         142.5983  143.5922  163.0691 C.3     1  UNL1        0.0768
     15 C         143.0808  142.9925  164.3566 C.3     1  UNL1        0.0434
     16 H         143.1739  140.2137  171.9796 H       1  UNL1        0.1442
     17 H         141.5355  140.5522  172.3093 H       1  UNL1        0.1442
     18 C         141.0618  144.6449  161.3420 C.3     1  UNL1        0.0576
     19 C         141.5255  144.7392  159.9185 C.3     1  UNL1        0.0173
     20 C         140.3106  145.4983  160.3634 C.3     1  UNL1        0.0173
@<TRIPOS>BOND
     1     1     2    1
     2     2     3   ar
     3     3     4   ar
     4     4     5   ar
     5     5     6   ar
     6     6     7   ar
     7     7     8   ar
     8     8     9   ar
     9     9    10   ar
    10     7    11    1
    11    11    12    1
    12    12    13    1
    13    13    18    1
    14    18    19    1
    15    19    20    1
    16    13    14    1
    17    14    15    1
    18    10     2   ar
    19    20    18    1
    20     9     4   ar
    21    15     6    1
    22     1    16    1
    23     1    17    1
