@<TRIPOS>MOLECULE
*****
 32 36 0 0 0
SMALL
GASTEIGER

@<TRIPOS>ATOM
      1 N         140.2173  144.3178  169.6762 N.pl3   1  UNL1       -0.3133
      2 C         140.7968  142.9643  169.9626 C.2     1  UNL1        0.2770
      3 N         141.4328  142.0475  168.9601 N.2     1  UNL1       -0.2202
      4 C         141.8712  140.8064  169.6796 C.3     1  UNL1        0.1582
      5 C         141.5062  140.9563  171.1268 C.3     1  UNL1        0.2351
      6 O         140.8422  142.2900  171.3017 O.2     1  UNL1       -0.4478
      7 C         142.1736  140.7988  168.2105 C.ar    1  UNL1        0.0357
      8 C         141.7926  141.9744  167.3602 C.ar    1  UNL1        0.0007
      9 C         142.0950  141.9668  165.8910 C.ar    1  UNL1        0.0029
     10 C         142.7784  140.7836  165.2721 C.ar    1  UNL1        0.0032
     11 C         143.1594  139.6080  166.1223 C.ar    1  UNL1        0.0366
     12 C         142.8570  139.6157  167.5915 C.ar    1  UNL1        0.1362
     13 O         143.2380  138.4401  168.4418 O.3     1  UNL1       -0.4792
     14 C         142.9356  138.4478  169.9109 C.3     1  UNL1        0.1729
     15 C         142.2522  139.6309  170.5299 C.3     1  UNL1        0.1174
     16 C         142.3365  139.6288  170.1200 C.3     1  UNL1        0.1502
     17 O         142.2479  139.6310  170.5508 O.3     1  UNL1       -0.3532
     18 C         142.3365  139.6288  170.1200 C.3     1  UNL1        0.1502
     19 H         140.2345  144.6768  168.7596 H       1  UNL1        0.1466
     20 H         139.8196  144.8472  170.4048 H       1  UNL1        0.1466
     21 C         141.7140  143.1423  165.0408 C.ar    1  UNL1        0.0384
     22 C         140.2827  143.5859  164.9722 C.ar    1  UNL1        0.1022
     23 N         139.9017  144.7614  164.1220 N.ar    1  UNL1       -0.2224
     24 C         140.9520  145.4934  163.3403 C.ar    1  UNL1        0.1989
     25 N         142.3832  145.0499  163.4087 N.ar    1  UNL1       -0.2224
     26 C         142.7643  143.8743  164.2590 C.ar    1  UNL1        0.1022
     27 C         143.3166  137.2722  170.7612 C.3     1  UNL1        0.0525
     28 C         144.5671  136.5013  170.4582 C.3     1  UNL1        0.1070
     29 C         145.2934  135.7871  171.5593 C.3     1  UNL1        0.3979
     30 F         146.0195  135.0729  172.6605 F       1  UNL1       -0.1700
     31 F         146.6029  136.2661  171.0065 F       1  UNL1       -0.1700
     32 F         143.9838  135.3080  172.1123 F       1  UNL1       -0.1700
@<TRIPOS>BOND
     1     1     2    1
     2     2     3    2
     3     3     4    1
     4     4     5    1
     5     5     6    1
     6     4     7    1
     7     7     8   ar
     8     8     9   ar
     9     9    21    1
    10    21    22   ar
    11    22    23   ar
    12    23    24   ar
    13    24    25   ar
    14    25    26   ar
    15     9    10   ar
    16    10    11   ar
    17    11    12   ar
    18    12    13    1
    19    13    14    1
    20    14    27    1
    21    27    28    1
    22    28    29    1
    23    29    30    1
    24    29    31    1
    25    29    32    1
    26    14    15    1
    27    15    16    1
    28    16    17    1
    29    17    18    1
    30     6     2    1
    31    12     7   ar
    32    18    15    1
    33    15     4    1
    34    26    21   ar
    35     1    19    1
    36     1    20    1
@<TRIPOS>MOLECULE
*****
 32 36 0 0 0
SMALL
GASTEIGER

@<TRIPOS>ATOM
      1 N         143.6647  142.5527  168.9495 N.pl3   1  UNL1       -0.3133
      2 C         142.3552  141.9794  169.4036 C.2     1  UNL1        0.2770
      3 N         141.4259  141.1406  168.5770 N.2     1  UNL1       -0.2202
      4 C         140.2413  140.7870  169.4265 C.3     1  UNL1        0.1582
      5 C         140.4384  141.4071  170.7781 C.3     1  UNL1        0.2351
      6 O         141.7449  142.1441  170.7638 O.2     1  UNL1       -0.4478
      7 C         140.1821  140.2301  168.0350 C.ar    1  UNL1        0.0357
      8 C         141.2984  140.5017  167.0704 C.ar    1  UNL1        0.0007
      9 C         141.2392  139.9448  165.6789 C.ar    1  UNL1        0.0029
     10 C         140.0638  139.1165  165.2519 C.ar    1  UNL1        0.0032
     11 C         138.9476  138.8450  166.2164 C.ar    1  UNL1        0.0366
     12 C         139.0068  139.4018  167.6080 C.ar    1  UNL1        0.1362
     13 O         137.8906  139.1303  168.5725 O.3     1  UNL1       -0.4792
     14 C         137.9498  139.6871  169.9641 C.3     1  UNL1        0.1729
     15 C         139.1251  140.5155  170.3911 C.3     1  UNL1        0.1174
     16 C         139.1086  140.3601  170.0028 C.3     1  UNL1        0.1502
     17 O         139.1259  140.5234  170.4109 O.3     1  UNL1       -0.3532
     18 C         139.1086  140.3601  170.0028 C.3     1  UNL1        0.1502
     19 H         143.9824  142.3883  168.0323 H       1  UNL1        0.1466
     20 H         144.2066  143.0933  169.5686 H       1  UNL1        0.1466
     21 C         142.3554  140.2164  164.7143 C.ar    1  UNL1        0.0384
     22 C         142.1831  141.2478  163.6389 C.ar    1  UNL1        0.1022
     23 N         143.2993  141.5193  162.6743 N.ar    1  UNL1       -0.2224
     24 C         144.5878  140.7594  162.7852 C.ar    1  UNL1        0.1989
     25 N         144.7601  139.7280  163.8605 N.ar    1  UNL1       -0.2224
     26 C         143.6439  139.4565  164.8252 C.ar    1  UNL1        0.1022
     27 C         136.8335  139.4156  170.9286 C.3     1  UNL1        0.0525
     28 C         136.2550  138.0359  171.0371 C.3     1  UNL1        0.1070
     29 C         135.9451  137.4565  172.3856 C.3     1  UNL1        0.3979
     30 F         135.6351  136.8771  173.7340 F       1  UNL1       -0.1700
     31 F         137.2404  136.7005  172.3585 F       1  UNL1       -0.1700
     32 F         134.6497  138.2124  172.4127 F       1  UNL1       -0.1700
@<TRIPOS>BOND
     1     1     2    1
     2     2     3    2
     3     3     4    1
     4     4     5    1
     5     5     6    1
     6     4     7    1
     7     7     8   ar
     8     8     9   ar
     9     9    21    1
    10    21    22   ar
    11    22    23   ar
    12    23    24   ar
    13    24    25   ar
    14    25    26   ar
    15     9    10   ar
    16    10    11   ar
    17    11    12   ar
    18    12    13    1
    19    13    14    1
    20    14    27    1
    21    27    28    1
    22    28    29    1
    23    29    30    1
    24    29    31    1
    25    29    32    1
    26    14    15    1
    27    15    16    1
    28    16    17    1
    29    17    18    1
    30     6     2    1
    31    12     7   ar
    32    18    15    1
    33    15     4    1
    34    26    21   ar
    35     1    19    1
    36     1    20    1
@<TRIPOS>MOLECULE
*****
 32 36 0 0 0
SMALL
GASTEIGER

@<TRIPOS>ATOM
      1 N         137.3536  141.0711  163.6507 N.pl3   1  UNL1       -0.3133
      2 C         138.2618  140.6991  164.7849 C.2     1  UNL1        0.2770
      3 N         139.6262  141.2660  165.0442 N.2     1  UNL1       -0.2202
      4 C         140.1729  140.6122  166.2787 C.3     1  UNL1        0.1582
      5 C         139.1463  139.6412  166.7822 C.3     1  UNL1        0.2351
      6 O         137.9652  139.6950  165.8590 O.2     1  UNL1       -0.4478
      7 C         141.0988  141.6166  165.6593 C.ar    1  UNL1        0.0357
      8 C         140.6866  142.3514  164.4182 C.ar    1  UNL1        0.0007
      9 C         141.6125  143.3559  163.7988 C.ar    1  UNL1        0.0029
     10 C         142.9508  143.6256  164.4206 C.ar    1  UNL1        0.0032
     11 C         143.3630  142.8909  165.6616 C.ar    1  UNL1        0.0366
     12 C         142.4370  141.8864  166.2810 C.ar    1  UNL1        0.1362
     13 O         142.8492  141.1516  167.5220 O.3     1  UNL1       -0.4792
     14 C         141.9232  140.1472  168.1414 C.3     1  UNL1        0.1729
     15 C         140.5851  139.8774  167.5197 C.3     1  UNL1        0.1174
     16 C         140.8434  140.1577  167.3469 C.3     1  UNL1        0.1502
     17 O         140.5719  139.8631  167.5285 O.3     1  UNL1       -0.3532
     18 C         140.8434  140.1577  167.3469 C.3     1  UNL1        0.1502
     19 H         137.6390  141.7450  162.9922 H       1  UNL1        0.1466
     20 H         136.4720  140.6413  163.5646 H       1  UNL1        0.1466
     21 C         141.2003  144.0906  162.5578 C.ar    1  UNL1        0.0384
     22 C         142.1225  144.1427  161.3758 C.ar    1  UNL1        0.1022
     23 N         141.7103  144.8775  160.1348 N.ar    1  UNL1       -0.2224
     24 C         140.3759  145.5601  160.0756 C.ar    1  UNL1        0.1989
     25 N         139.4538  145.5080  161.2575 N.ar    1  UNL1       -0.2224
     26 C         139.8660  144.7732  162.4986 C.ar    1  UNL1        0.1022
     27 C         142.3355  139.4124  169.3825 C.3     1  UNL1        0.0525
     28 C         142.5111  140.1581  170.6720 C.3     1  UNL1        0.1070
     29 C         141.5027  141.1886  171.0858 C.3     1  UNL1        0.3979
     30 F         140.4944  142.2192  171.4996 F       1  UNL1       -0.1700
     31 F         140.4525  140.1221  171.1831 F       1  UNL1       -0.1700
     32 F         142.5529  142.2553  170.9886 F       1  UNL1       -0.1700
@<TRIPOS>BOND
     1     1     2    1
     2     2     3    2
     3     3     4    1
     4     4     5    1
     5     5     6    1
     6     4     7    1
     7     7     8   ar
     8     8     9   ar
     9     9    21    1
    10    21    22   ar
    11    22    23   ar
    12    23    24   ar
    13    24    25   ar
    14    25    26   ar
    15     9    10   ar
    16    10    11   ar
    17    11    12   ar
    18    12    13    1
    19    13    14    1
    20    14    27    1
    21    27    28    1
    22    28    29    1
    23    29    30    1
    24    29    31    1
    25    29    32    1
    26    14    15    1
    27    15    16    1
    28    16    17    1
    29    17    18    1
    30     6     2    1
    31    12     7   ar
    32    18    15    1
    33    15     4    1
    34    26    21   ar
    35     1    19    1
    36     1    20    1
@<TRIPOS>MOLECULE
*****
 32 36 0 0 0
SMALL
GASTEIGER

@<TRIPOS>ATOM
      1 N         138.7391  137.6439  163.3155 N.pl3   1  UNL1       -0.3133
      2 C         138.8871  138.2791  164.6662 C.2     1  UNL1        0.2770
      3 N         140.0195  139.1582  165.1078 N.2     1  UNL1       -0.2202
      4 C         139.7609  139.5692  166.5271 C.3     1  UNL1        0.1582
      5 C         138.4688  138.9441  166.9627 C.3     1  UNL1        0.2351
      6 O         137.9288  138.1467  165.8125 O.2     1  UNL1       -0.4478
      7 C         141.0305  140.1246  165.9528 C.ar    1  UNL1        0.0357
      8 C         141.4208  139.7985  164.5416 C.ar    1  UNL1        0.0007
      9 C         142.6904  140.3538  163.9672 C.ar    1  UNL1        0.0029
     10 C         143.5696  141.2352  164.8041 C.ar    1  UNL1        0.0032
     11 C         143.1792  141.5612  166.2152 C.ar    1  UNL1        0.0366
     12 C         141.9097  141.0059  166.7895 C.ar    1  UNL1        0.1362
     13 O         141.5193  141.3319  168.2006 O.3     1  UNL1       -0.4792
     14 C         140.2498  140.7766  168.7750 C.3     1  UNL1        0.1729
     15 C         139.3706  139.8953  167.9382 C.3     1  UNL1        0.1174
     16 C         139.7248  140.0502  167.7780 C.3     1  UNL1        0.1502
     17 O         139.3525  139.8873  167.9464 O.3     1  UNL1       -0.3532
     18 C         139.7248  140.0502  167.7780 C.3     1  UNL1        0.1502
     19 H         139.4250  137.7908  162.6247 H       1  UNL1        0.1466
     20 H         137.9561  137.0801  163.1198 H       1  UNL1        0.1466
     21 C         143.0807  140.0278  162.5561 C.ar    1  UNL1        0.0384
     22 C         143.3614  138.6072  162.1647 C.ar    1  UNL1        0.1022
     23 N         143.7517  138.2812  160.7536 N.ar    1  UNL1       -0.2224
     24 C         143.8615  139.3757  159.7338 C.ar    1  UNL1        0.1989
     25 N         143.5808  140.7963  160.1252 N.ar    1  UNL1       -0.2224
     26 C         143.1905  141.1224  161.5363 C.ar    1  UNL1        0.1022
     27 C         139.8594  141.1027  170.1862 C.3     1  UNL1        0.0525
     28 C         140.5702  142.1960  170.9274 C.3     1  UNL1        0.1070
     29 C         140.3342  143.6301  170.5560 C.3     1  UNL1        0.3979
     30 F         140.0982  145.0641  170.1847 F       1  UNL1       -0.1700
     31 F         141.6843  143.6836  169.9047 F       1  UNL1       -0.1700
     32 F         138.9840  143.5766  171.2074 F       1  UNL1       -0.1700
@<TRIPOS>BOND
     1     1     2    1
     2     2     3    2
     3     3     4    1
     4     4     5    1
     5     5     6    1
     6     4     7    1
     7     7     8   ar
     8     8     9   ar
     9     9    21    1
    10    21    22   ar
    11    22    23   ar
    12    23    24   ar
    13    24    25   ar
    14    25    26   ar
    15     9    10   ar
    16    10    11   ar
    17    11    12   ar
    18    12    13    1
    19    13    14    1
    20    14    27    1
    21    27    28    1
    22    28    29    1
    23    29    30    1
    24    29    31    1
    25    29    32    1
    26    14    15    1
    27    15    16    1
    28    16    17    1
    29    17    18    1
    30     6     2    1
    31    12     7   ar
    32    18    15    1
    33    15     4    1
    34    26    21   ar
    35     1    19    1
    36     1    20    1
@<TRIPOS>MOLECULE
*****
 32 36 0 0 0
SMALL
GASTEIGER

@<TRIPOS>ATOM
      1 N         144.1938  140.4480  161.8718 N.pl3   1  UNL1       -0.3133
      2 C         143.8274  140.2058  163.3059 C.2     1  UNL1        0.2770
      3 N         142.8351  140.9948  164.1078 N.2     1  UNL1       -0.2202
      4 C         142.7833  140.4087  165.4876 C.3     1  UNL1        0.1582
      5 C         143.7436  139.2574  165.5385 C.3     1  UNL1        0.2351
      6 O         144.3889  139.1320  164.1901 O.2     1  UNL1       -0.4478
      7 C         141.8667  141.5789  165.2871 C.ar    1  UNL1        0.0357
      8 C         141.8108  142.2685  163.9561 C.ar    1  UNL1        0.0007
      9 C         140.8941  143.4387  163.7556 C.ar    1  UNL1        0.0029
     10 C         140.0333  143.9194  164.8861 C.ar    1  UNL1        0.0032
     11 C         140.0891  143.2299  166.2170 C.ar    1  UNL1        0.0366
     12 C         141.0058  142.0596  166.4175 C.ar    1  UNL1        0.1362
     13 O         141.0617  141.3701  167.7484 O.3     1  UNL1       -0.4792
     14 C         141.9784  140.1998  167.9489 C.3     1  UNL1        0.1729
     15 C         142.8392  139.7191  166.8185 C.3     1  UNL1        0.1174
     16 C         142.5834  140.0456  166.7626 C.3     1  UNL1        0.1502
     17 O         142.8523  139.7024  166.8214 O.3     1  UNL1       -0.3532
     18 C         142.5834  140.0456  166.7626 C.3     1  UNL1        0.1502
     19 H         143.7682  141.1818  161.3722 H       1  UNL1        0.1466
     20 H         144.8598  139.8731  161.4300 H       1  UNL1        0.1466
     21 C         140.8383  144.1282  162.4247 C.ar    1  UNL1        0.0384
     22 C         141.9650  143.9656  161.4478 C.ar    1  UNL1        0.1022
     23 N         141.9091  144.6551  160.1169 N.ar    1  UNL1       -0.2224
     24 C         140.7266  145.5073  159.7628 C.ar    1  UNL1        0.1989
     25 N         139.6000  145.6700  160.7395 N.ar    1  UNL1       -0.2224
     26 C         139.6558  144.9804  162.0705 C.ar    1  UNL1        0.1022
     27 C         142.0342  139.5103  169.2799 C.3     1  UNL1        0.0525
     28 C         142.6011  140.2241  170.4712 C.3     1  UNL1        0.1070
     29 C         142.6868  141.7217  170.4775 C.3     1  UNL1        0.3979
     30 F         142.7725  143.2192  170.4838 F       1  UNL1       -0.1700
     31 F         144.0949  141.6432  169.9666 F       1  UNL1       -0.1700
     32 F         141.2787  141.8001  170.9884 F       1  UNL1       -0.1700
@<TRIPOS>BOND
     1     1     2    1
     2     2     3    2
     3     3     4    1
     4     4     5    1
     5     5     6    1
     6     4     7    1
     7     7     8   ar
     8     8     9   ar
     9     9    21    1
    10    21    22   ar
    11    22    23   ar
    12    23    24   ar
    13    24    25   ar
    14    25    26   ar
    15     9    10   ar
    16    10    11   ar
    17    11    12   ar
    18    12    13    1
    19    13    14    1
    20    14    27    1
    21    27    28    1
    22    28    29    1
    23    29    30    1
    24    29    31    1
    25    29    32    1
    26    14    15    1
    27    15    16    1
    28    16    17    1
    29    17    18    1
    30     6     2    1
    31    12     7   ar
    32    18    15    1
    33    15     4    1
    34    26    21   ar
    35     1    19    1
    36     1    20    1
@<TRIPOS>MOLECULE
*****
 32 36 0 0 0
SMALL
GASTEIGER

@<TRIPOS>ATOM
      1 N         138.6079  145.1497  165.8212 N.pl3   1  UNL1       -0.3133
      2 C         138.3459  144.2014  164.6891 C.2     1  UNL1        0.2770
      3 N         138.5461  142.7150  164.7198 N.2     1  UNL1       -0.2202
      4 C         138.1616  142.1677  163.3771 C.3     1  UNL1        0.1582
      5 C         137.7237  143.3158  162.5167 C.3     1  UNL1        0.2351
      6 O         137.8376  144.5726  163.3276 O.2     1  UNL1       -0.4478
      7 C         138.6245  141.1251  164.3511 C.ar    1  UNL1        0.0357
      8 C         139.0420  141.5246  165.7354 C.ar    1  UNL1        0.0007
      9 C         139.5048  140.4820  166.7094 C.ar    1  UNL1        0.0029
     10 C         139.5502  139.0399  166.2992 C.ar    1  UNL1        0.0032
     11 C         139.1327  138.6404  164.9150 C.ar    1  UNL1        0.0366
     12 C         138.6699  139.6830  163.9410 C.ar    1  UNL1        0.1362
     13 O         138.2524  139.2836  162.5567 O.3     1  UNL1       -0.4792
     14 C         137.7895  140.3262  161.5827 C.3     1  UNL1        0.1729
     15 C         137.7441  141.7682  161.9929 C.3     1  UNL1        0.1174
     16 C         137.8732  141.4774  162.2647 C.3     1  UNL1        0.1502
     17 O         137.7375  141.7831  161.9790 O.3     1  UNL1       -0.3532
     18 C         137.8732  141.4774  162.2647 C.3     1  UNL1        0.1502
     19 H         138.9428  144.8084  166.6818 H       1  UNL1        0.1466
     20 H         138.4450  146.1135  165.7037 H       1  UNL1        0.1466
     21 C         139.9223  140.8815  168.0936 C.ar    1  UNL1        0.0384
     22 C         140.9994  141.9079  168.2854 C.ar    1  UNL1        0.1022
     23 N         141.4169  142.3073  169.6696 N.ar    1  UNL1       -0.2224
     24 C         140.7574  141.6805  170.8621 C.ar    1  UNL1        0.1989
     25 N         139.6804  140.6542  170.6705 N.ar    1  UNL1       -0.2224
     26 C         139.2628  140.2547  169.2862 C.ar    1  UNL1        0.1022
     27 C         137.3720  139.9266  160.1984 C.3     1  UNL1        0.0525
     28 C         138.3896  139.8580  159.0986 C.3     1  UNL1        0.1070
     29 C         139.8525  139.9130  159.4258 C.3     1  UNL1        0.3979
     30 F         141.3153  139.9679  159.7530 F       1  UNL1       -0.1700
     31 F         139.8502  141.3939  159.1877 F       1  UNL1       -0.1700
     32 F         139.8549  138.4320  159.6640 F       1  UNL1       -0.1700
@<TRIPOS>BOND
     1     1     2    1
     2     2     3    2
     3     3     4    1
     4     4     5    1
     5     5     6    1
     6     4     7    1
     7     7     8   ar
     8     8     9   ar
     9     9    21    1
    10    21    22   ar
    11    22    23   ar
    12    23    24   ar
    13    24    25   ar
    14    25    26   ar
    15     9    10   ar
    16    10    11   ar
    17    11    12   ar
    18    12    13    1
    19    13    14    1
    20    14    27    1
    21    27    28    1
    22    28    29    1
    23    29    30    1
    24    29    31    1
    25    29    32    1
    26    14    15    1
    27    15    16    1
    28    16    17    1
    29    17    18    1
    30     6     2    1
    31    12     7   ar
    32    18    15    1
    33    15     4    1
    34    26    21   ar
    35     1    19    1
    36     1    20    1
@<TRIPOS>MOLECULE
*****
 32 36 0 0 0
SMALL
GASTEIGER

@<TRIPOS>ATOM
      1 N         137.7544  138.3391  166.6551 N.pl3   1  UNL1       -0.3133
      2 C         138.8568  138.2115  165.6460 C.2     1  UNL1        0.2770
      3 N         140.1350  138.9965  165.6325 N.2     1  UNL1       -0.2202
      4 C         140.9428  138.5467  164.4513 C.3     1  UNL1        0.1582
      5 C         140.1639  137.4836  163.7348 C.3     1  UNL1        0.2351
      6 O         138.8747  137.2765  164.4732 O.2     1  UNL1       -0.4478
      7 C         141.6022  139.6172  165.2694 C.ar    1  UNL1        0.0357
      8 C         140.9118  140.1662  166.4827 C.ar    1  UNL1        0.0007
      9 C         141.5712  141.2367  167.3007 C.ar    1  UNL1        0.0029
     10 C         142.9209  141.7583  166.9054 C.ar    1  UNL1        0.0032
     11 C         143.6112  141.2093  165.6922 C.ar    1  UNL1        0.0366
     12 C         142.9519  140.1388  164.8741 C.ar    1  UNL1        0.1362
     13 O         143.6422  139.5899  163.6609 O.3     1  UNL1       -0.4792
     14 C         142.9828  138.5193  162.8428 C.3     1  UNL1        0.1729
     15 C         141.6331  137.9977  163.2381 C.3     1  UNL1        0.1174
     16 C         141.8171  138.2964  163.4663 C.3     1  UNL1        0.1502
     17 O         141.6237  137.9825  163.2264 O.3     1  UNL1       -0.3532
     18 C         141.8171  138.2964  163.4663 C.3     1  UNL1        0.1502
     19 H         137.8354  138.9852  167.3935 H       1  UNL1        0.1466
     20 H         136.9499  137.7767  166.5790 H       1  UNL1        0.1466
     21 C         140.8809  141.7856  168.5140 C.ar    1  UNL1        0.0384
     22 C         141.2477  143.1434  169.0357 C.ar    1  UNL1        0.1022
     23 N         140.5574  143.6923  170.2490 N.ar    1  UNL1       -0.2224
     24 C         139.5003  142.8836  170.9406 C.ar    1  UNL1        0.1989
     25 N         139.1334  141.5259  170.4190 N.ar    1  UNL1       -0.2224
     26 C         139.8237  140.9769  169.2057 C.ar    1  UNL1        0.1022
     27 C         143.6732  137.9704  161.6295 C.3     1  UNL1        0.0525
     28 C         143.7987  138.8108  160.3934 C.3     1  UNL1        0.1070
     29 C         142.9455  140.0335  160.2279 C.3     1  UNL1        0.3979
     30 F         142.0924  141.2561  160.0625 F       1  UNL1       -0.1700
     31 F         141.7887  139.1709  159.8187 F       1  UNL1       -0.1700
     32 F         144.1024  140.8962  160.6373 F       1  UNL1       -0.1700
@<TRIPOS>BOND
     1     1     2    1
     2     2     3    2
     3     3     4    1
     4     4     5    1
     5     5     6    1
     6     4     7    1
     7     7     8   ar
     8     8     9   ar
     9     9    21    1
    10    21    22   ar
    11    22    23   ar
    12    23    24   ar
    13    24    25   ar
    14    25    26   ar
    15     9    10   ar
    16    10    11   ar
    17    11    12   ar
    18    12    13    1
    19    13    14    1
    20    14    27    1
    21    27    28    1
    22    28    29    1
    23    29    30    1
    24    29    31    1
    25    29    32    1
    26    14    15    1
    27    15    16    1
    28    16    17    1
    29    17    18    1
    30     6     2    1
    31    12     7   ar
    32    18    15    1
    33    15     4    1
    34    26    21   ar
    35     1    19    1
    36     1    20    1
@<TRIPOS>MOLECULE
*****
 32 36 0 0 0
SMALL
GASTEIGER

@<TRIPOS>ATOM
      1 N         139.3568  146.2769  161.2741 N.pl3   1  UNL1       -0.3133
      2 C         139.1091  145.1316  162.2105 C.2     1  UNL1        0.2770
      3 N         138.7786  143.7234  161.8130 N.2     1  UNL1       -0.2202
      4 C         138.6137  142.9148  163.0657 C.3     1  UNL1        0.1582
      5 C         138.8423  143.8232  164.2372 C.3     1  UNL1        0.2351
      6 O         139.1485  145.1933  163.7087 O.2     1  UNL1       -0.4478
      7 C         138.4122  142.1311  161.8027 C.ar    1  UNL1        0.0357
      8 C         138.5455  142.8080  160.4707 C.ar    1  UNL1        0.0007
      9 C         138.3440  142.0243  159.2076 C.ar    1  UNL1        0.0029
     10 C         138.0093  140.5637  159.2766 C.ar    1  UNL1        0.0032
     11 C         137.8760  139.8869  160.6086 C.ar    1  UNL1        0.0366
     12 C         138.0775  140.6706  161.8716 C.ar    1  UNL1        0.1362
     13 O         137.9442  139.9938  163.2035 O.3     1  UNL1       -0.4792
     14 C         138.1457  140.7775  164.4666 C.3     1  UNL1        0.1729
     15 C         138.4804  142.2380  164.3976 C.3     1  UNL1        0.1174
     16 C         138.4242  142.0193  164.0452 C.3     1  UNL1        0.1502
     17 O         138.4833  142.2492  164.4156 O.3     1  UNL1       -0.3532
     18 C         138.4242  142.0193  164.0452 C.3     1  UNL1        0.1502
     19 H         139.3081  146.1364  160.3009 H       1  UNL1        0.1466
     20 H         139.5680  147.1691  161.6327 H       1  UNL1        0.1466
     21 C         138.4773  142.7011  157.8757 C.ar    1  UNL1        0.0384
     22 C         139.6906  143.5298  157.5735 C.ar    1  UNL1        0.1022
     23 N         139.8238  144.2066  156.2416 N.ar    1  UNL1       -0.2224
     24 C         138.7438  144.0548  155.2118 C.ar    1  UNL1        0.1989
     25 N         137.5306  143.2261  155.5139 N.ar    1  UNL1       -0.2224
     26 C         137.3972  142.5493  156.8459 C.ar    1  UNL1        0.1022
     27 C         138.0124  140.1006  165.7985 C.3     1  UNL1        0.0525
     28 C         138.7291  138.8088  166.0584 C.3     1  UNL1        0.1070
     29 C         137.9707  137.6200  166.5701 C.3     1  UNL1        0.3979
     30 F         137.2123  136.4314  167.0818 F       1  UNL1       -0.1700
     31 F         138.6260  136.7559  165.5338 F       1  UNL1       -0.1700
     32 F         137.3154  138.4842  167.6064 F       1  UNL1       -0.1700
@<TRIPOS>BOND
     1     1     2    1
     2     2     3    2
     3     3     4    1
     4     4     5    1
     5     5     6    1
     6     4     7    1
     7     7     8   ar
     8     8     9   ar
     9     9    21    1
    10    21    22   ar
    11    22    23   ar
    12    23    24   ar
    13    24    25   ar
    14    25    26   ar
    15     9    10   ar
    16    10    11   ar
    17    11    12   ar
    18    12    13    1
    19    13    14    1
    20    14    27    1
    21    27    28    1
    22    28    29    1
    23    29    30    1
    24    29    31    1
    25    29    32    1
    26    14    15    1
    27    15    16    1
    28    16    17    1
    29    17    18    1
    30     6     2    1
    31    12     7   ar
    32    18    15    1
    33    15     4    1
    34    26    21   ar
    35     1    19    1
    36     1    20    1
@<TRIPOS>MOLECULE
*****
 32 36 0 0 0
SMALL
GASTEIGER

@<TRIPOS>ATOM
      1 N         144.6242  143.7058  166.1659 N.pl3   1  UNL1       -0.3133
      2 C         144.5391  142.5841  165.1738 C.2     1  UNL1        0.2770
      3 N         143.5199  141.4835  165.1727 N.2     1  UNL1       -0.2202
      4 C         143.8091  140.5851  164.0067 C.3     1  UNL1        0.1582
      5 C         145.0069  141.1306  163.2872 C.3     1  UNL1        0.2351
      6 O         145.4581  142.3661  164.0085 O.2     1  UNL1       -0.4478
      7 C         142.6267  140.1599  164.8259 C.ar    1  UNL1        0.0357
      8 C         142.2172  140.9629  166.0250 C.ar    1  UNL1        0.0007
      9 C         141.0348  140.5377  166.8442 C.ar    1  UNL1        0.0029
     10 C         140.2619  139.3095  166.4644 C.ar    1  UNL1        0.0032
     11 C         140.6713  138.5066  165.2654 C.ar    1  UNL1        0.0366
     12 C         141.8537  138.9318  164.4461 C.ar    1  UNL1        0.1362
     13 O         142.2632  138.1289  163.2471 O.3     1  UNL1       -0.4792
     14 C         143.4456  138.5541  162.4279 C.3     1  UNL1        0.1729
     15 C         144.2185  139.7822  162.8077 C.3     1  UNL1        0.1174
     16 C         143.8886  139.6636  163.0362 C.3     1  UNL1        0.1502
     17 O         144.2354  139.7883  162.7960 O.3     1  UNL1       -0.3532
     18 C         143.8886  139.6636  163.0362 C.3     1  UNL1        0.1502
     19 H         143.9712  143.7639  166.9004 H       1  UNL1        0.1466
     20 H         145.3330  144.3840  166.0826 H       1  UNL1        0.1466
     21 C         140.6254  141.3406  168.0432 C.ar    1  UNL1        0.0384
     22 C         140.1902  140.6447  169.2988 C.ar    1  UNL1        0.1022
     23 N         139.7808  141.4476  170.4979 N.ar    1  UNL1       -0.2224
     24 C         139.8064  142.9464  170.4413 C.ar    1  UNL1        0.1989
     25 N         140.2416  143.6422  169.1858 N.ar    1  UNL1       -0.2224
     26 C         140.6511  142.8393  167.9867 C.ar    1  UNL1        0.1022
     27 C         143.8550  137.7512  161.2288 C.3     1  UNL1        0.0525
     28 C         143.0705  137.8531  159.9544 C.3     1  UNL1        0.1070
     29 C         142.1282  139.0010  159.7436 C.3     1  UNL1        0.3979
     30 F         141.1859  140.1489  159.5327 F       1  UNL1       -0.1700
     31 F         140.9760  138.1291  160.1462 F       1  UNL1       -0.1700
     32 F         143.2804  139.8730  159.3409 F       1  UNL1       -0.1700
@<TRIPOS>BOND
     1     1     2    1
     2     2     3    2
     3     3     4    1
     4     4     5    1
     5     5     6    1
     6     4     7    1
     7     7     8   ar
     8     8     9   ar
     9     9    21    1
    10    21    22   ar
    11    22    23   ar
    12    23    24   ar
    13    24    25   ar
    14    25    26   ar
    15     9    10   ar
    16    10    11   ar
    17    11    12   ar
    18    12    13    1
    19    13    14    1
    20    14    27    1
    21    27    28    1
    22    28    29    1
    23    29    30    1
    24    29    31    1
    25    29    32    1
    26    14    15    1
    27    15    16    1
    28    16    17    1
    29    17    18    1
    30     6     2    1
    31    12     7   ar
    32    18    15    1
    33    15     4    1
    34    26    21   ar
    35     1    19    1
    36     1    20    1
