@<TRIPOS>MOLECULE
*****
 36 40 0 0 0
SMALL
GASTEIGER

@<TRIPOS>ATOM
      1 C         138.4500  138.7347  166.3061 C.3     1  UNL1        0.0002
      2 C         137.3600  138.3783  167.2730 C.3     1  UNL1        0.0001
      3 C         138.4954  139.2547  167.7123 C.3     1  UNL1        0.0037
      4 N         140.2592  138.4513  162.1955 N.pl3   1  UNL1       -0.2782
      5 C         140.7523  137.5583  163.2952 C.3     1  UNL1        0.0936
      6 C         140.1492  137.6527  164.6654 C.3     1  UNL1        0.0216
      7 C         139.0530  138.6402  164.9359 C.3     1  UNL1        0.0034
      8 C         138.5599  139.5333  163.8362 C.3     1  UNL1        0.0216
      9 C         139.1630  139.4388  162.4661 C.3     1  UNL1        0.0936
     10 C         142.0683  138.1679  158.0850 C.ar    1  UNL1        0.0457
     11 C         142.9386  138.0283  159.2987 C.ar    1  UNL1        0.1015
     12 N         142.3355  138.1228  160.6689 N.ar    1  UNL1       -0.2123
     13 C         140.8622  138.3568  160.8254 C.ar    1  UNL1        0.2202
     14 N         139.9920  138.4964  159.6117 N.ar    1  UNL1       -0.2123
     15 C         140.5950  138.4019  158.2415 C.ar    1  UNL1        0.1015
     16 C         142.6714  138.0734  156.7148 C.3     1  UNL1        0.1718
     17 C         143.2998  135.5580  156.5478 C.3     1  UNL1        0.1746
     18 O         143.6773  137.0032  156.4103 O.3     1  UNL1       -0.3462
     19 C         139.1771  140.0609  168.7778 C.3     1  UNL1        0.0473
     20 C         140.6613  140.2718  168.7245 C.3     1  UNL1        0.2054
     21 O         141.4071  140.0344  167.4450 O.3     1  UNL1       -0.4753
     22 C         141.7482  141.1892  166.5503 C.ar    1  UNL1        0.1430
     23 C         140.6723  142.1325  166.1002 C.ar    1  UNL1        0.0663
     24 C         141.0134  143.2872  165.2056 C.ar    1  UNL1        0.1418
     25 F         139.9375  144.2305  164.7555 F       1  UNL1       -0.2043
     26 C         142.4303  143.4985  164.7611 C.ar    1  UNL1        0.0421
     27 C         143.5062  142.5552  165.2113 C.ar    1  UNL1        0.1418
     28 F         144.9232  142.7666  164.7668 F       1  UNL1       -0.2043
     29 C         143.1651  141.4005  166.1059 C.ar    1  UNL1        0.0663
     30 C         142.7714  144.6533  163.8665 C.3     1  UNL1        0.1160
     31 C         142.8892  144.4455  162.3857 C.2     1  UNL1        0.2302
     32 O         144.1399  143.8514  161.8088 O.2     1  UNL1       -0.2745
     33 N         141.7562  144.8318  161.4817 N.am    1  UNL1       -0.2791
     34 C         140.3964  145.4324  161.6825 C.3     1  UNL1        0.0952
     35 C         140.1540  145.3781  160.2032 C.3     1  UNL1        0.0430
     36 C         141.5139  144.7776  160.0024 C.3     1  UNL1        0.0952
@<TRIPOS>BOND
     1    17    18    1
     2    18    16    1
     3    16    10    1
     4    10    11   ar
     5    11    12   ar
     6    12    13   ar
     7    13     4    1
     8     4     5    1
     9     5     6    1
    10     6     7    1
    11     1     7    1
    12     1     2    1
    13     2     3    1
    14     3    19    1
    15    19    20    1
    16    20    21    1
    17    21    22    1
    18    22    23   ar
    19    23    24   ar
    20    24    25    1
    21    24    26   ar
    22    26    30    1
    23    30    31    1
    24    31    32    2
    25    31    33   am
    26    33    34    1
    27    34    35    1
    28    35    36    1
    29    26    27   ar
    30    27    28    1
    31    27    29   ar
    32     7     8    1
    33     8     9    1
    34    13    14   ar
    35    14    15   ar
    36    15    10   ar
    37     9     4    1
    38     3     1    1
    39    29    22   ar
    40    36    33    1
@<TRIPOS>MOLECULE
*****
 36 40 0 0 0
SMALL
GASTEIGER

@<TRIPOS>ATOM
      1 C         138.5379  138.7587  166.2184 C.3     1  UNL1        0.0002
      2 C         137.4814  138.4024  167.2218 C.3     1  UNL1        0.0001
      3 C         138.6201  139.2954  167.6166 C.3     1  UNL1        0.0037
      4 N         140.2253  138.4460  162.0585 N.pl3   1  UNL1       -0.2782
      5 C         139.1678  139.4648  162.3642 C.3     1  UNL1        0.0936
      6 C         138.6053  139.5690  163.7509 C.3     1  UNL1        0.0216
      7 C         139.1004  138.6544  164.8318 C.3     1  UNL1        0.0034
      8 C         140.1579  137.6357  164.5260 C.3     1  UNL1        0.0216
      9 C         140.7204  137.5314  163.1394 C.3     1  UNL1        0.0936
     10 C         141.9128  138.1333  157.8986 C.ar    1  UNL1        0.0457
     11 C         142.8040  137.9255  159.0871 C.ar    1  UNL1        0.1015
     12 N         142.2415  138.0297  160.4737 N.ar    1  UNL1       -0.2123
     13 C         140.7878  138.3418  160.6719 C.ar    1  UNL1        0.2202
     14 N         139.8966  138.5496  159.4834 N.ar    1  UNL1       -0.2123
     15 C         140.4591  138.4454  158.0968 C.ar    1  UNL1        0.1015
     16 C         142.4753  138.0291  156.5120 C.3     1  UNL1        0.1718
     17 C         143.9952  136.0740  155.7262 C.3     1  UNL1        0.1746
     18 O         143.8433  137.4520  156.2990 O.3     1  UNL1       -0.3462
     19 C         139.3250  140.1208  168.6518 C.3     1  UNL1        0.0473
     20 C         140.4231  141.0578  168.2438 C.3     1  UNL1        0.2054
     21 O         141.0579  140.9256  166.8913 O.3     1  UNL1       -0.4753
     22 C         141.0734  142.0953  165.9524 C.ar    1  UNL1        0.1430
     23 C         142.3545  142.5093  165.2910 C.ar    1  UNL1        0.0663
     24 C         142.3700  143.6790  164.3521 C.ar    1  UNL1        0.1418
     25 F         143.6511  144.0929  163.6908 F       1  UNL1       -0.2043
     26 C         141.1044  144.4348  164.0747 C.ar    1  UNL1        0.0421
     27 C         139.8233  144.0208  164.7360 C.ar    1  UNL1        0.1418
     28 F         138.5576  144.7766  164.4585 F       1  UNL1       -0.2043
     29 C         139.8078  142.8511  165.6749 C.ar    1  UNL1        0.0663
     30 C         141.1199  145.6045  163.1358 C.3     1  UNL1        0.1160
     31 C         140.4417  145.5044  161.8016 C.2     1  UNL1        0.2302
     32 O         139.1491  146.2265  161.5613 O.2     1  UNL1       -0.2745
     33 N         141.0561  144.6823  160.7078 N.am    1  UNL1       -0.2791
     34 C         142.2952  143.8469  160.5771 C.3     1  UNL1        0.0952
     35 C         141.9250  143.5195  159.1608 C.3     1  UNL1        0.0430
     36 C         140.6860  144.3548  159.2915 C.3     1  UNL1        0.0952
@<TRIPOS>BOND
     1    17    18    1
     2    18    16    1
     3    16    10    1
     4    10    11   ar
     5    11    12   ar
     6    12    13   ar
     7    13     4    1
     8     4     5    1
     9     5     6    1
    10     6     7    1
    11     1     7    1
    12     1     2    1
    13     2     3    1
    14     3    19    1
    15    19    20    1
    16    20    21    1
    17    21    22    1
    18    22    23   ar
    19    23    24   ar
    20    24    25    1
    21    24    26   ar
    22    26    30    1
    23    30    31    1
    24    31    32    2
    25    31    33   am
    26    33    34    1
    27    34    35    1
    28    35    36    1
    29    26    27   ar
    30    27    28    1
    31    27    29   ar
    32     7     8    1
    33     8     9    1
    34    13    14   ar
    35    14    15   ar
    36    15    10   ar
    37     9     4    1
    38     3     1    1
    39    29    22   ar
    40    36    33    1
@<TRIPOS>MOLECULE
*****
 36 40 0 0 0
SMALL
GASTEIGER

@<TRIPOS>ATOM
      1 C         138.6658  139.7742  165.7781 C.3     1  UNL1        0.0002
      2 C         138.1426  138.4950  166.3610 C.3     1  UNL1        0.0001
      3 C         138.7662  139.5263  167.2540 C.3     1  UNL1        0.0037
      4 N         139.3982  142.4196  162.2122 N.pl3   1  UNL1       -0.2782
      5 C         138.0070  141.9578  162.5303 C.3     1  UNL1        0.0936
      6 C         137.7629  141.0760  163.7190 C.3     1  UNL1        0.0216
      7 C         138.9099  140.6560  164.5895 C.3     1  UNL1        0.0034
      8 C         140.3011  141.1178  164.2713 C.3     1  UNL1        0.0216
      9 C         140.5453  141.9996  163.0827 C.3     1  UNL1        0.0936
     10 C         140.1306  145.0649  158.6462 C.ar    1  UNL1        0.0457
     11 C         139.6235  143.6667  158.4514 C.ar    1  UNL1        0.1015
     12 N         139.3794  142.7849  159.6400 N.ar    1  UNL1       -0.2123
     13 C         139.6423  143.3013  161.0235 C.ar    1  UNL1        0.2202
     14 N         140.1494  144.6995  161.2184 N.ar    1  UNL1       -0.2123
     15 C         140.3935  145.5812  160.0298 C.ar    1  UNL1        0.1015
     16 C         140.3747  145.9466  157.4576 C.3     1  UNL1        0.1718
     17 C         138.7786  146.0606  155.4108 C.3     1  UNL1        0.1746
     18 O         139.9862  145.4808  156.0858 O.3     1  UNL1       -0.3462
     19 C         139.1842  139.9784  168.6218 C.3     1  UNL1        0.0473
     20 C         140.6384  140.0141  168.9881 C.3     1  UNL1        0.2054
     21 O         141.4931  141.1678  168.5542 O.3     1  UNL1       -0.4753
     22 C         142.3436  141.0503  167.3242 C.ar    1  UNL1        0.1430
     23 C         142.6032  139.7031  166.7178 C.ar    1  UNL1        0.0663
     24 C         143.4537  139.5856  165.4879 C.ar    1  UNL1        0.1418
     25 F         143.7133  138.2384  164.8815 F       1  UNL1       -0.2043
     26 C         144.0445  140.8152  164.8643 C.ar    1  UNL1        0.0421
     27 C         143.7848  142.1624  165.4706 C.ar    1  UNL1        0.1418
     28 F         144.3757  143.3920  164.8469 F       1  UNL1       -0.2043
     29 C         142.9344  142.2799  166.7006 C.ar    1  UNL1        0.0663
     30 C         144.8950  140.6977  163.6342 C.3     1  UNL1        0.1160
     31 C         144.2600  140.3945  162.3095 C.2     1  UNL1        0.2302
     32 O         144.0587  138.9708  161.8825 O.2     1  UNL1       -0.2745
     33 N         143.8263  141.5152  161.4118 N.am    1  UNL1       -0.2791
     34 C         143.8611  143.0127  161.4920 C.3     1  UNL1        0.0952
     35 C         143.2130  143.1001  160.1421 C.3     1  UNL1        0.0430
     36 C         143.1783  141.6026  160.0618 C.3     1  UNL1        0.0952
@<TRIPOS>BOND
     1    17    18    1
     2    18    16    1
     3    16    10    1
     4    10    11   ar
     5    11    12   ar
     6    12    13   ar
     7    13     4    1
     8     4     5    1
     9     5     6    1
    10     6     7    1
    11     1     7    1
    12     1     2    1
    13     2     3    1
    14     3    19    1
    15    19    20    1
    16    20    21    1
    17    21    22    1
    18    22    23   ar
    19    23    24   ar
    20    24    25    1
    21    24    26   ar
    22    26    30    1
    23    30    31    1
    24    31    32    2
    25    31    33   am
    26    33    34    1
    27    34    35    1
    28    35    36    1
    29    26    27   ar
    30    27    28    1
    31    27    29   ar
    32     7     8    1
    33     8     9    1
    34    13    14   ar
    35    14    15   ar
    36    15    10   ar
    37     9     4    1
    38     3     1    1
    39    29    22   ar
    40    36    33    1
@<TRIPOS>MOLECULE
*****
 36 40 0 0 0
SMALL
GASTEIGER

@<TRIPOS>ATOM
      1 C         138.8137  139.1327  166.3149 C.3     1  UNL1        0.0002
      2 C         137.7177  138.7285  167.2559 C.3     1  UNL1        0.0001
      3 C         138.8722  139.5454  167.7558 C.3     1  UNL1        0.0037
      4 N         140.6106  139.1179  162.1893 N.pl3   1  UNL1       -0.2782
      5 C         140.2380  137.8237  162.8497 C.3     1  UNL1        0.0936
      6 C         139.6390  137.8286  164.2249 C.3     1  UNL1        0.0216
      7 C         139.4126  139.1278  164.9397 C.3     1  UNL1        0.0034
      8 C         139.7852  140.4220  164.2793 C.3     1  UNL1        0.0216
      9 C         140.3842  140.4170  162.9041 C.3     1  UNL1        0.0936
     10 C         142.4075  139.1031  158.0637 C.ar    1  UNL1        0.0457
     11 C         141.4268  140.1700  158.4508 C.ar    1  UNL1        0.1015
     12 N         140.8278  140.1750  159.8260 N.ar    1  UNL1       -0.2123
     13 C         141.2095  139.1130  160.8141 C.ar    1  UNL1        0.2202
     14 N         142.1902  138.0460  160.4270 N.ar    1  UNL1       -0.2123
     15 C         142.7892  138.0411  159.0518 C.ar    1  UNL1        0.1015
     16 C         143.0064  139.0982  156.6884 C.3     1  UNL1        0.1718
     17 C         144.8308  138.2729  155.0330 C.3     1  UNL1        0.1746
     18 O         144.1973  138.2356  156.3921 O.3     1  UNL1       -0.3462
     19 C         139.5725  140.2552  168.8764 C.3     1  UNL1        0.0473
     20 C         141.0668  140.1881  168.9890 C.3     1  UNL1        0.2054
     21 O         141.8501  139.3075  168.0611 O.3     1  UNL1       -0.4753
     22 C         142.5513  139.9024  166.8760 C.ar    1  UNL1        0.1430
     23 C         142.9611  139.0263  165.7294 C.ar    1  UNL1        0.0663
     24 C         143.6622  139.6211  164.5443 C.ar    1  UNL1        0.1418
     25 F         144.0721  138.7450  163.3978 F       1  UNL1       -0.2043
     26 C         143.9535  141.0920  164.5057 C.ar    1  UNL1        0.0421
     27 C         143.5437  141.9681  165.6523 C.ar    1  UNL1        0.1418
     28 F         143.8351  143.4391  165.6136 F       1  UNL1       -0.2043
     29 C         142.8426  141.3733  166.8374 C.ar    1  UNL1        0.0663
     30 C         144.6547  141.6869  163.3206 C.3     1  UNL1        0.1160
     31 C         143.9283  141.8370  162.0169 C.2     1  UNL1        0.2302
     32 O         144.1668  140.8555  160.9080 O.2     1  UNL1       -0.2745
     33 N         142.9633  142.9687  161.8221 N.am    1  UNL1       -0.2791
     34 C         142.4800  144.1084  162.6693 C.3     1  UNL1        0.0952
     35 C         141.5985  144.5692  161.5465 C.3     1  UNL1        0.0430
     36 C         142.0817  143.4295  160.6993 C.3     1  UNL1        0.0952
@<TRIPOS>BOND
     1    17    18    1
     2    18    16    1
     3    16    10    1
     4    10    11   ar
     5    11    12   ar
     6    12    13   ar
     7    13     4    1
     8     4     5    1
     9     5     6    1
    10     6     7    1
    11     1     7    1
    12     1     2    1
    13     2     3    1
    14     3    19    1
    15    19    20    1
    16    20    21    1
    17    21    22    1
    18    22    23   ar
    19    23    24   ar
    20    24    25    1
    21    24    26   ar
    22    26    30    1
    23    30    31    1
    24    31    32    2
    25    31    33   am
    26    33    34    1
    27    34    35    1
    28    35    36    1
    29    26    27   ar
    30    27    28    1
    31    27    29   ar
    32     7     8    1
    33     8     9    1
    34    13    14   ar
    35    14    15   ar
    36    15    10   ar
    37     9     4    1
    38     3     1    1
    39    29    22   ar
    40    36    33    1
@<TRIPOS>MOLECULE
*****
 36 40 0 0 0
SMALL
GASTEIGER

@<TRIPOS>ATOM
      1 C         142.4235  139.9165  168.8817 C.3     1  UNL1        0.0002
      2 C         142.9326  139.5853  170.2532 C.3     1  UNL1        0.0001
      3 C         141.4791  139.8928  170.0468 C.3     1  UNL1        0.0037
      4 N         143.1777  140.5312  164.4882 N.pl3   1  UNL1       -0.2782
      5 C         143.3591  141.6705  165.4469 C.3     1  UNL1        0.0936
      6 C         143.1077  141.4656  166.9114 C.3     1  UNL1        0.0216
      7 C         142.6749  140.1214  167.4172 C.3     1  UNL1        0.0034
      8 C         142.4935  138.9822  166.4585 C.3     1  UNL1        0.0216
      9 C         142.7448  139.1871  164.9940 C.3     1  UNL1        0.0936
     10 C         143.9318  141.1460  160.0946 C.ar    1  UNL1        0.0457
     11 C         142.9969  140.0655  160.5511 C.ar    1  UNL1        0.1015
     12 N         142.7455  139.8605  162.0156 N.ar    1  UNL1       -0.2123
     13 C         143.4290  140.7362  163.0236 C.ar    1  UNL1        0.2202
     14 N         144.3639  141.8167  162.5671 N.ar    1  UNL1       -0.2123
     15 C         144.6153  142.0216  161.1026 C.ar    1  UNL1        0.1015
     16 C         144.1832  141.3509  158.6301 C.3     1  UNL1        0.1718
     17 C         143.4489  139.5249  156.9341 C.3     1  UNL1        0.1746
     18 O         144.5196  140.1794  157.7557 O.3     1  UNL1       -0.3462
     19 C         140.0946  140.0566  170.6002 C.3     1  UNL1        0.0473
     20 C         138.9413  140.3062  169.6741 C.3     1  UNL1        0.2054
     21 O         138.6356  139.3300  168.5770 O.3     1  UNL1       -0.4753
     22 C         138.8601  139.7164  167.1451 C.ar    1  UNL1        0.1430
     23 C         138.5037  138.7604  166.0456 C.ar    1  UNL1        0.0663
     24 C         138.7282  139.1468  164.6137 C.ar    1  UNL1        0.1418
     25 F         138.3718  138.1907  163.5142 F       1  UNL1       -0.2043
     26 C         139.3091  140.4891  164.2814 C.ar    1  UNL1        0.0421
     27 C         139.6655  141.4452  165.3809 C.ar    1  UNL1        0.1418
     28 F         140.2465  142.7876  165.0485 F       1  UNL1       -0.2043
     29 C         139.4410  141.0588  166.8128 C.ar    1  UNL1        0.0663
     30 C         139.5337  140.8756  162.8495 C.3     1  UNL1        0.1160
     31 C         138.9399  142.1443  162.3131 C.2     1  UNL1        0.2302
     32 O         137.4534  142.2690  162.1562 O.2     1  UNL1       -0.2745
     33 N         139.8327  143.2883  161.9335 N.am    1  UNL1       -0.2791
     34 C         141.3133  143.5284  161.9481 C.3     1  UNL1        0.0952
     35 C         141.0953  144.9063  161.3967 C.3     1  UNL1        0.0430
     36 C         139.6147  144.6661  161.3821 C.3     1  UNL1        0.0952
@<TRIPOS>BOND
     1    17    18    1
     2    18    16    1
     3    16    10    1
     4    10    11   ar
     5    11    12   ar
     6    12    13   ar
     7    13     4    1
     8     4     5    1
     9     5     6    1
    10     6     7    1
    11     1     7    1
    12     1     2    1
    13     2     3    1
    14     3    19    1
    15    19    20    1
    16    20    21    1
    17    21    22    1
    18    22    23   ar
    19    23    24   ar
    20    24    25    1
    21    24    26   ar
    22    26    30    1
    23    30    31    1
    24    31    32    2
    25    31    33   am
    26    33    34    1
    27    34    35    1
    28    35    36    1
    29    26    27   ar
    30    27    28    1
    31    27    29   ar
    32     7     8    1
    33     8     9    1
    34    13    14   ar
    35    14    15   ar
    36    15    10   ar
    37     9     4    1
    38     3     1    1
    39    29    22   ar
    40    36    33    1
@<TRIPOS>MOLECULE
*****
 36 40 0 0 0
SMALL
GASTEIGER

@<TRIPOS>ATOM
      1 C         138.5981  139.8657  165.6924 C.3     1  UNL1        0.0002
      2 C         137.9410  138.7436  166.4402 C.3     1  UNL1        0.0001
      3 C         138.8510  139.6936  167.1608 C.3     1  UNL1        0.0037
      4 N         139.2979  142.1073  161.8538 N.pl3   1  UNL1       -0.2782
      5 C         140.4193  141.3405  162.4897 C.3     1  UNL1        0.0936
      6 C         140.1860  140.5933  163.7692 C.3     1  UNL1        0.0216
      7 C         138.8313  140.6129  164.4129 C.3     1  UNL1        0.0034
      8 C         137.7099  141.3797  163.7770 C.3     1  UNL1        0.0216
      9 C         137.9432  142.1269  162.4974 C.3     1  UNL1        0.0936
     10 C         139.9978  144.3490  158.0151 C.ar    1  UNL1        0.0457
     11 C         139.6697  142.8857  157.9800 C.ar    1  UNL1        0.1015
     12 N         139.4364  142.1385  159.2596 N.ar    1  UNL1       -0.2123
     13 C         139.5312  142.8545  160.5742 C.ar    1  UNL1        0.2202
     14 N         139.8594  144.3178  160.6093 N.ar    1  UNL1       -0.2123
     15 C         140.0927  145.0650  159.3297 C.ar    1  UNL1        0.1015
     16 C         140.2311  145.0962  156.7356 C.3     1  UNL1        0.1718
     17 C         139.9393  147.2492  155.3110 C.3     1  UNL1        0.1746
     18 O         139.8471  146.5424  156.6308 O.3     1  UNL1       -0.3462
     19 C         139.5225  140.1427  168.4247 C.3     1  UNL1        0.0473
     20 C         140.9707  140.5333  168.4067 C.3     1  UNL1        0.2054
     21 O         141.9610  139.7064  167.6416 O.3     1  UNL1       -0.4753
     22 C         142.7729  140.3318  166.5462 C.ar    1  UNL1        0.1430
     23 C         143.0636  141.8031  166.5746 C.ar    1  UNL1        0.0663
     24 C         143.8754  142.4285  165.4792 C.ar    1  UNL1        0.1418
     25 F         144.1661  143.8998  165.5077 F       1  UNL1       -0.2043
     26 C         144.3964  141.5826  164.3555 C.ar    1  UNL1        0.0421
     27 C         144.1057  140.1114  164.3270 C.ar    1  UNL1        0.1418
     28 F         144.6268  139.2655  163.2032 F       1  UNL1       -0.2043
     29 C         143.2939  139.4860  165.4224 C.ar    1  UNL1        0.0663
     30 C         145.2083  142.2080  163.2600 C.3     1  UNL1        0.1160
     31 C         144.5406  143.0712  162.2310 C.2     1  UNL1        0.2302
     32 O         144.4850  144.5581  162.4209 O.2     1  UNL1       -0.2745
     33 N         143.9284  142.4475  161.0119 N.am    1  UNL1       -0.2791
     34 C         143.7907  141.0470  160.4924 C.3     1  UNL1        0.0952
     35 C         143.0626  141.5655  159.2878 C.3     1  UNL1        0.0430
     36 C         143.2002  142.9659  159.8073 C.3     1  UNL1        0.0952
@<TRIPOS>BOND
     1    17    18    1
     2    18    16    1
     3    16    10    1
     4    10    11   ar
     5    11    12   ar
     6    12    13   ar
     7    13     4    1
     8     4     5    1
     9     5     6    1
    10     6     7    1
    11     1     7    1
    12     1     2    1
    13     2     3    1
    14     3    19    1
    15    19    20    1
    16    20    21    1
    17    21    22    1
    18    22    23   ar
    19    23    24   ar
    20    24    25    1
    21    24    26   ar
    22    26    30    1
    23    30    31    1
    24    31    32    2
    25    31    33   am
    26    33    34    1
    27    34    35    1
    28    35    36    1
    29    26    27   ar
    30    27    28    1
    31    27    29   ar
    32     7     8    1
    33     8     9    1
    34    13    14   ar
    35    14    15   ar
    36    15    10   ar
    37     9     4    1
    38     3     1    1
    39    29    22   ar
    40    36    33    1
@<TRIPOS>MOLECULE
*****
 36 40 0 0 0
SMALL
GASTEIGER

@<TRIPOS>ATOM
      1 C         143.8800  142.5297  159.7781 C.3     1  UNL1        0.0002
      2 C         144.6913  142.4381  158.5199 C.3     1  UNL1        0.0001
      3 C         143.4618  143.2966  158.5587 C.3     1  UNL1        0.0037
      4 N         143.1989  141.3601  164.0698 N.pl3   1  UNL1       -0.2782
      5 C         144.3143  142.2984  163.7161 C.3     1  UNL1        0.0936
      6 C         144.5414  142.6883  162.2856 C.3     1  UNL1        0.0216
      7 C         143.6529  142.1398  161.2087 C.3     1  UNL1        0.0034
      8 C         142.5374  141.2015  161.5623 C.3     1  UNL1        0.0216
      9 C         142.3104  140.8116  162.9929 C.3     1  UNL1        0.0936
     10 C         142.5178  140.1904  168.3614 C.ar    1  UNL1        0.0457
     11 C         142.6759  141.6361  167.9941 C.ar    1  UNL1        0.1015
     12 N         142.9029  142.0260  166.5635 N.ar    1  UNL1       -0.2123
     13 C         142.9718  140.9702  165.5003 C.ar    1  UNL1        0.2202
     14 N         142.8137  139.5245  165.8676 N.ar    1  UNL1       -0.2123
     15 C         142.5866  139.1346  167.2982 C.ar    1  UNL1        0.1015
     16 C         142.2907  139.8006  169.7919 C.3     1  UNL1        0.1718
     17 C         139.7247  140.1978  169.7055 C.3     1  UNL1        0.1746
     18 O         140.9079  139.4674  170.2681 O.3     1  UNL1       -0.3462
     19 C         142.5106  144.2349  157.8771 C.3     1  UNL1        0.0473
     20 C         141.4775  144.9692  158.6792 C.3     1  UNL1        0.2054
     21 O         141.7085  145.2333  160.1376 O.3     1  UNL1       -0.4753
     22 C         140.8893  144.5152  161.1688 C.ar    1  UNL1        0.1430
     23 C         141.2529  144.6186  162.6204 C.ar    1  UNL1        0.0663
     24 C         140.4338  143.9005  163.6517 C.ar    1  UNL1        0.1418
     25 F         140.7973  144.0039  165.1033 F       1  UNL1       -0.2043
     26 C         139.2512  143.0792  163.2313 C.ar    1  UNL1        0.0421
     27 C         138.8877  142.9758  161.7797 C.ar    1  UNL1        0.1418
     28 F         137.7050  142.1544  161.3593 F       1  UNL1       -0.2043
     29 C         139.7068  143.6939  160.7485 C.ar    1  UNL1        0.0663
     30 C         138.4320  142.3611  164.2626 C.3     1  UNL1        0.1160
     31 C         138.9953  141.1620  164.9660 C.2     1  UNL1        0.2302
     32 O         139.5490  141.2979  166.3535 O.2     1  UNL1       -0.2745
     33 N         139.0050  139.8271  164.2820 N.am    1  UNL1       -0.2791
     34 C         138.5559  139.3172  162.9447 C.3     1  UNL1        0.0952
     35 C         139.0187  137.9392  163.3148 C.3     1  UNL1        0.0430
     36 C         139.4679  138.4491  164.6520 C.3     1  UNL1        0.0952
@<TRIPOS>BOND
     1    17    18    1
     2    18    16    1
     3    16    10    1
     4    10    11   ar
     5    11    12   ar
     6    12    13   ar
     7    13     4    1
     8     4     5    1
     9     5     6    1
    10     6     7    1
    11     1     7    1
    12     1     2    1
    13     2     3    1
    14     3    19    1
    15    19    20    1
    16    20    21    1
    17    21    22    1
    18    22    23   ar
    19    23    24   ar
    20    24    25    1
    21    24    26   ar
    22    26    30    1
    23    30    31    1
    24    31    32    2
    25    31    33   am
    26    33    34    1
    27    34    35    1
    28    35    36    1
    29    26    27   ar
    30    27    28    1
    31    27    29   ar
    32     7     8    1
    33     8     9    1
    34    13    14   ar
    35    14    15   ar
    36    15    10   ar
    37     9     4    1
    38     3     1    1
    39    29    22   ar
    40    36    33    1
@<TRIPOS>MOLECULE
*****
 36 40 0 0 0
SMALL
GASTEIGER

@<TRIPOS>ATOM
      1 C         138.8908  140.0686  164.1818 C.3     1  UNL1        0.0002
      2 C         138.3073  139.8401  165.5446 C.3     1  UNL1        0.0001
      3 C         139.1442  138.7758  164.8990 C.3     1  UNL1        0.0037
      4 N         139.4624  142.7035  160.5789 N.pl3   1  UNL1       -0.2782
      5 C         138.0999  142.5499  161.1872 C.3     1  UNL1        0.0936
      6 C         137.9094  141.6717  162.3882 C.3     1  UNL1        0.0216
      7 C         139.0813  140.9469  162.9808 C.3     1  UNL1        0.0034
      8 C         140.4438  141.1004  162.3725 C.3     1  UNL1        0.0216
      9 C         140.6343  141.9787  161.1715 C.3     1  UNL1        0.0936
     10 C         140.0340  145.3383  156.9760 C.ar    1  UNL1        0.0457
     11 C         139.3858  143.9939  156.8267 C.ar    1  UNL1        0.1015
     12 N         139.1953  143.1156  158.0277 N.ar    1  UNL1       -0.2123
     13 C         139.6530  143.5817  159.3779 C.ar    1  UNL1        0.2202
     14 N         140.3012  144.9262  159.5272 N.ar    1  UNL1       -0.2123
     15 C         140.4917  145.8045  158.3263 C.ar    1  UNL1        0.1015
     16 C         140.2246  146.2166  155.7751 C.3     1  UNL1        0.1718
     17 C         139.3249  148.4874  154.8897 C.3     1  UNL1        0.1746
     18 O         139.0881  147.0565  155.2722 O.3     1  UNL1       -0.3462
     19 C         139.7738  137.4150  164.9405 C.3     1  UNL1        0.0473
     20 C         141.1497  137.2078  164.3801 C.3     1  UNL1        0.2054
     21 O         142.3491  137.6961  165.1371 O.3     1  UNL1       -0.4753
     22 C         142.7700  139.1319  165.0303 C.ar    1  UNL1        0.1430
     23 C         143.5521  139.5975  163.8380 C.ar    1  UNL1        0.0663
     24 C         143.9730  141.0332  163.7312 C.ar    1  UNL1        0.1418
     25 F         144.7551  141.4988  162.5389 F       1  UNL1       -0.2043
     26 C         143.6117  142.0034  164.8166 C.ar    1  UNL1        0.0421
     27 C         142.8295  141.5378  166.0088 C.ar    1  UNL1        0.1418
     28 F         142.4682  142.5081  167.0943 F       1  UNL1       -0.2043
     29 C         142.4087  140.1021  166.1157 C.ar    1  UNL1        0.0663
     30 C         144.0325  143.4392  164.7098 C.3     1  UNL1        0.1160
     31 C         143.4022  144.3310  163.6815 C.2     1  UNL1        0.2302
     32 O         144.2538  144.9909  162.6378 O.2     1  UNL1       -0.2745
     33 N         141.9204  144.5629  163.6970 N.am    1  UNL1       -0.2791
     34 C         140.7821  144.0935  164.5538 C.3     1  UNL1        0.0952
     35 C         139.8246  144.8910  163.7188 C.3     1  UNL1        0.0430
     36 C         140.9628  145.3604  162.8620 C.3     1  UNL1        0.0952
@<TRIPOS>BOND
     1    17    18    1
     2    18    16    1
     3    16    10    1
     4    10    11   ar
     5    11    12   ar
     6    12    13   ar
     7    13     4    1
     8     4     5    1
     9     5     6    1
    10     6     7    1
    11     1     7    1
    12     1     2    1
    13     2     3    1
    14     3    19    1
    15    19    20    1
    16    20    21    1
    17    21    22    1
    18    22    23   ar
    19    23    24   ar
    20    24    25    1
    21    24    26   ar
    22    26    30    1
    23    30    31    1
    24    31    32    2
    25    31    33   am
    26    33    34    1
    27    34    35    1
    28    35    36    1
    29    26    27   ar
    30    27    28    1
    31    27    29   ar
    32     7     8    1
    33     8     9    1
    34    13    14   ar
    35    14    15   ar
    36    15    10   ar
    37     9     4    1
    38     3     1    1
    39    29    22   ar
    40    36    33    1
@<TRIPOS>MOLECULE
*****
 36 40 0 0 0
SMALL
GASTEIGER

@<TRIPOS>ATOM
      1 C         138.2812  139.4246  165.8674 C.3     1  UNL1        0.0002
      2 C         137.7856  138.5203  166.9567 C.3     1  UNL1        0.0001
      3 C         138.8152  139.5676  167.2618 C.3     1  UNL1        0.0037
      4 N         138.2149  140.7433  161.5654 N.pl3   1  UNL1       -0.2782
      5 C         138.0183  141.7486  162.6612 C.3     1  UNL1        0.0936
      6 C         138.0404  141.3090  164.0951 C.3     1  UNL1        0.0216
      7 C         138.2591  139.8642  164.4334 C.3     1  UNL1        0.0034
      8 C         138.4557  138.8589  163.3377 C.3     1  UNL1        0.0216
      9 C         138.4336  139.2984  161.9037 C.3     1  UNL1        0.0936
     10 C         138.1486  142.0620  157.2635 C.ar    1  UNL1        0.0457
     11 C         137.6055  140.7165  157.6440 C.ar    1  UNL1        0.1015
     12 N         137.6276  140.2770  159.0780 N.ar    1  UNL1       -0.2123
     13 C         138.1928  141.1828  160.1315 C.ar    1  UNL1        0.2202
     14 N         138.7359  142.5283  159.7510 N.ar    1  UNL1       -0.2123
     15 C         138.7138  142.9678  158.3170 C.ar    1  UNL1        0.1015
     16 C         138.1265  142.5015  155.8295 C.3     1  UNL1        0.1718
     17 C         137.9683  145.0165  155.1972 C.3     1  UNL1        0.1746
     18 O         137.3063  143.6893  155.4217 O.3     1  UNL1       -0.3462
     19 C         139.7180  140.2547  168.2430 C.3     1  UNL1        0.0473
     20 C         141.1499  139.8266  168.3719 C.3     1  UNL1        0.2054
     21 O         141.9210  139.4113  167.1543 O.3     1  UNL1       -0.4753
     22 C         142.2437  140.4189  166.0910 C.ar    1  UNL1        0.1430
     23 C         143.1185  141.5943  166.4123 C.ar    1  UNL1        0.0663
     24 C         143.4412  142.6019  165.3491 C.ar    1  UNL1        0.1418
     25 F         144.3160  143.7773  165.6704 F       1  UNL1       -0.2043
     26 C         142.8891  142.4342  163.9645 C.ar    1  UNL1        0.0421
     27 C         142.0143  141.2589  163.6432 C.ar    1  UNL1        0.1418
     28 F         141.4622  141.0912  162.2586 F       1  UNL1       -0.2043
     29 C         141.6916  140.2512  164.7064 C.ar    1  UNL1        0.0663
     30 C         143.2118  143.4419  162.9012 C.3     1  UNL1        0.1160
     31 C         142.1046  144.1471  162.1755 C.2     1  UNL1        0.2302
     32 O         142.2533  144.4779  160.7200 O.2     1  UNL1       -0.2745
     33 N         140.8488  144.5215  162.9052 N.am    1  UNL1       -0.2791
     34 C         140.3519  144.3633  164.3117 C.3     1  UNL1        0.0952
     35 C         139.0725  145.0510  163.9371 C.3     1  UNL1        0.0430
     36 C         139.5694  145.2092  162.5306 C.3     1  UNL1        0.0952
@<TRIPOS>BOND
     1    17    18    1
     2    18    16    1
     3    16    10    1
     4    10    11   ar
     5    11    12   ar
     6    12    13   ar
     7    13     4    1
     8     4     5    1
     9     5     6    1
    10     6     7    1
    11     1     7    1
    12     1     2    1
    13     2     3    1
    14     3    19    1
    15    19    20    1
    16    20    21    1
    17    21    22    1
    18    22    23   ar
    19    23    24   ar
    20    24    25    1
    21    24    26   ar
    22    26    30    1
    23    30    31    1
    24    31    32    2
    25    31    33   am
    26    33    34    1
    27    34    35    1
    28    35    36    1
    29    26    27   ar
    30    27    28    1
    31    27    29   ar
    32     7     8    1
    33     8     9    1
    34    13    14   ar
    35    14    15   ar
    36    15    10   ar
    37     9     4    1
    38     3     1    1
    39    29    22   ar
    40    36    33    1
