@<TRIPOS>MOLECULE
*****
 29 34 0 0 0
SMALL
GASTEIGER

@<TRIPOS>ATOM
      1 C         140.3431  145.8679  158.3429 C.3     1  UNL1        0.1154
      2 N         140.3465  144.4156  158.7187 N.am    1  UNL1       -0.2682
      3 C         140.8018  143.3856  157.7279 C.3     1  UNL1        0.1794
      4 C         140.8051  141.9334  158.1037 C.2     1  UNL1        0.2467
      5 O         141.2604  140.9034  157.1130 O.2     1  UNL1       -0.2730
      6 N         140.3531  141.5114  159.4703 N.am    1  UNL1       -0.2638
      7 C         140.3564  140.0592  159.8462 C.3     1  UNL1        0.1382
      8 C         139.9045  139.6372  161.2128 C.2     1  UNL1        0.0771
      9 N         139.7988  138.2898  161.8634 N.2     1  UNL1       -0.2483
     10 C         139.2782  138.4871  163.2563 C.2     1  UNL1        0.0770
     11 C         138.9730  137.5186  164.3603 C.2     1  UNL1        0.0184
     12 C         138.4517  138.0195  165.6745 C.2     1  UNL1       -0.0027
     13 C         138.2356  139.4889  165.8847 C.2     1  UNL1       -0.0213
     14 C         138.5408  140.4574  164.7807 C.3     1  UNL1        0.0535
     15 C         139.0621  139.9565  163.4665 C.2     1  UNL1       -0.0029
     16 C         139.4491  140.6672  162.2036 C.2     1  UNL1       -0.0067
     17 C         139.4458  142.1194  161.8277 C.3     1  UNL1        0.0566
     18 C         139.8978  142.5414  160.4611 C.3     1  UNL1        0.1569
     19 C         139.8945  143.9937  160.0853 C.2     1  UNL1        0.2445
     20 O         139.4392  145.0237  161.0761 O.2     1  UNL1       -0.2731
     21 C         140.8117  139.0292  158.8554 C.ar    1  UNL1        0.0046
     22 C         142.2323  138.5475  158.8734 C.ar    1  UNL1        0.0010
     23 C         142.6876  137.5175  157.8827 C.ar    1  UNL1        0.0399
     24 C         141.7225  136.9690  156.8739 C.ar    1  UNL1        0.1764
     25 C         140.3020  137.4506  156.8558 C.ar    1  UNL1        0.1762
     26 C         139.8466  138.4807  157.8466 C.ar    1  UNL1        0.0379
     27 O         139.5831  136.7327  155.7523 O.3     1  UNL1       -0.4346
     28 C         140.5593  135.8074  155.0883 C.3     1  UNL1        0.4294
     29 O         141.8815  135.9535  155.7815 O.3     1  UNL1       -0.4346
@<TRIPOS>BOND
     1     1     2    1
     2     2     3    1
     3     3     4    1
     4     4     5    2
     5     4     6   am
     6     6     7    1
     7     7    21    1
     8    21    22   ar
     9    22    23   ar
    10    23    24   ar
    11    24    25   ar
    12    25    26   ar
    13    25    27    1
    14    27    28    1
    15    28    29    1
    16     7     8    1
    17     8     9    2
    18     9    10    1
    19    10    11    2
    20    11    12    1
    21    12    13    2
    22    13    14    1
    23    14    15    1
    24    15    16    2
    25    16    17    1
    26    18    17    1
    27    18    19    1
    28    19    20    2
    29    19     2   am
    30    18     6    1
    31    26    21   ar
    32    16     8    1
    33    29    24    1
    34    15    10    1
@<TRIPOS>MOLECULE
*****
 29 34 0 0 0
SMALL
GASTEIGER

@<TRIPOS>ATOM
      1 C         140.3644  145.8346  157.7520 C.3     1  UNL1        0.1154
      2 N         140.3488  144.3854  158.1389 N.am    1  UNL1       -0.2682
      3 C         140.7230  143.3367  157.1339 C.3     1  UNL1        0.1794
      4 C         140.7075  141.8876  157.5209 C.2     1  UNL1        0.2467
      5 O         141.0817  140.8388  156.5159 O.2     1  UNL1       -0.2730
      6 N         140.3177  141.4871  158.9129 N.am    1  UNL1       -0.2638
      7 C         140.3021  140.0380  159.2999 C.3     1  UNL1        0.1382
      8 C         139.9124  139.6376  160.6919 C.2     1  UNL1        0.0771
      9 N         139.8054  138.2980  161.3582 N.2     1  UNL1       -0.2483
     10 C         139.3651  138.5187  162.7751 C.2     1  UNL1        0.0770
     11 C         139.0933  137.5664  163.9016 C.2     1  UNL1        0.0184
     12 C         138.6562  138.0901  165.2374 C.2     1  UNL1       -0.0027
     13 C         138.4910  139.5662  165.4468 C.2     1  UNL1       -0.0213
     14 C         138.7629  140.5186  164.3203 C.3     1  UNL1        0.0535
     15 C         139.1999  139.9948  162.9844 C.2     1  UNL1       -0.0029
     16 C         139.5381  140.6863  161.6970 C.2     1  UNL1       -0.0067
     17 C         139.5537  142.1354  161.3100 C.3     1  UNL1        0.0566
     18 C         139.9435  142.5359  159.9180 C.3     1  UNL1        0.1569
     19 C         139.9590  143.9851  159.5310 C.2     1  UNL1        0.2445
     20 O         139.5848  145.0338  160.5361 O.2     1  UNL1       -0.2731
     21 C         140.6764  138.9893  158.2948 C.ar    1  UNL1        0.0046
     22 C         139.6152  138.3446  157.4530 C.ar    1  UNL1        0.0010
     23 C         139.9894  137.2960  156.4480 C.ar    1  UNL1        0.0399
     24 C         141.4247  136.8919  156.2846 C.ar    1  UNL1        0.1764
     25 C         142.4857  137.5365  157.1264 C.ar    1  UNL1        0.1762
     26 C         142.1116  138.5853  158.1315 C.ar    1  UNL1        0.0379
     27 O         143.8072  136.9380  156.7449 O.3     1  UNL1       -0.4346
     28 C         143.5629  135.9235  155.6674 C.3     1  UNL1        0.4294
     29 O         142.0903  135.8950  155.3830 O.3     1  UNL1       -0.4346
@<TRIPOS>BOND
     1     1     2    1
     2     2     3    1
     3     3     4    1
     4     4     5    2
     5     4     6   am
     6     6     7    1
     7     7    21    1
     8    21    22   ar
     9    22    23   ar
    10    23    24   ar
    11    24    25   ar
    12    25    26   ar
    13    25    27    1
    14    27    28    1
    15    28    29    1
    16     7     8    1
    17     8     9    2
    18     9    10    1
    19    10    11    2
    20    11    12    1
    21    12    13    2
    22    13    14    1
    23    14    15    1
    24    15    16    2
    25    16    17    1
    26    18    17    1
    27    18    19    1
    28    19    20    2
    29    19     2   am
    30    18     6    1
    31    26    21   ar
    32    16     8    1
    33    29    24    1
    34    15    10    1
@<TRIPOS>MOLECULE
*****
 29 34 0 0 0
SMALL
GASTEIGER

@<TRIPOS>ATOM
      1 C         145.5091  141.8286  156.9379 C.3     1  UNL1        0.1154
      2 N         144.0880  142.0388  157.3698 N.am    1  UNL1       -0.2682
      3 C         142.9726  141.8873  156.3784 C.3     1  UNL1        0.1794
      4 C         141.5516  142.0975  156.8103 C.2     1  UNL1        0.2467
      5 O         140.4362  141.9461  155.8190 O.2     1  UNL1       -0.2730
      6 N         141.2461  142.4592  158.2337 N.am    1  UNL1       -0.2638
      7 C         139.8251  142.6694  158.6656 C.3     1  UNL1        0.1382
      8 C         139.5195  143.0310  160.0889 C.2     1  UNL1        0.0771
      9 N         138.2268  143.2982  160.8013 N.2     1  UNL1       -0.2483
     10 C         138.5433  143.6147  162.2330 C.2     1  UNL1        0.0770
     11 C         137.6685  143.9589  163.4019 C.2     1  UNL1        0.0184
     12 C         138.2820  144.2315  164.7432 C.2     1  UNL1       -0.0027
     13 C         139.7704  144.1599  164.9156 C.2     1  UNL1       -0.0213
     14 C         140.6452  143.8158  163.7468 C.3     1  UNL1        0.0535
     15 C         140.0316  143.5432  162.4054 C.2     1  UNL1       -0.0029
     16 C         140.6349  143.1824  161.0804 C.2     1  UNL1       -0.0067
     17 C         142.0559  142.9722  160.6484 C.3     1  UNL1        0.0566
     18 C         142.3615  142.6106  159.2251 C.3     1  UNL1        0.1569
     19 C         143.7826  142.4004  158.7932 C.2     1  UNL1        0.2445
     20 O         144.8980  142.5518  159.7846 O.2     1  UNL1       -0.2731
     21 C         138.7097  142.5179  157.6742 C.ar    1  UNL1        0.0046
     22 C         138.3517  143.6584  156.7679 C.ar    1  UNL1        0.0010
     23 C         137.2364  143.5071  155.7765 C.ar    1  UNL1        0.0399
     24 C         136.4788  142.2152  155.6913 C.ar    1  UNL1        0.1764
     25 C         136.8367  141.0747  156.5975 C.ar    1  UNL1        0.1762
     26 C         137.9522  141.2261  157.5890 C.ar    1  UNL1        0.0379
     27 O         135.9189  139.9298  156.2864 O.3     1  UNL1       -0.4346
     28 C         134.9938  140.3627  155.1879 C.3     1  UNL1        0.4294
     29 O         135.3398  141.7752  154.8201 O.3     1  UNL1       -0.4346
@<TRIPOS>BOND
     1     1     2    1
     2     2     3    1
     3     3     4    1
     4     4     5    2
     5     4     6   am
     6     6     7    1
     7     7    21    1
     8    21    22   ar
     9    22    23   ar
    10    23    24   ar
    11    24    25   ar
    12    25    26   ar
    13    25    27    1
    14    27    28    1
    15    28    29    1
    16     7     8    1
    17     8     9    2
    18     9    10    1
    19    10    11    2
    20    11    12    1
    21    12    13    2
    22    13    14    1
    23    14    15    1
    24    15    16    2
    25    16    17    1
    26    18    17    1
    27    18    19    1
    28    19    20    2
    29    19     2   am
    30    18     6    1
    31    26    21   ar
    32    16     8    1
    33    29    24    1
    34    15    10    1
@<TRIPOS>MOLECULE
*****
 29 34 0 0 0
SMALL
GASTEIGER

@<TRIPOS>ATOM
      1 C         145.2484  142.1683  163.5530 C.3     1  UNL1        0.1154
      2 N         144.5094  141.9158  162.2723 N.am    1  UNL1       -0.2682
      3 C         144.4899  140.5393  161.6764 C.3     1  UNL1        0.1794
      4 C         143.7510  140.2869  160.3957 C.2     1  UNL1        0.2467
      5 O         143.7315  138.9106  159.7998 O.2     1  UNL1       -0.2730
      6 N         143.0315  141.4109  159.7109 N.am    1  UNL1       -0.2638
      7 C         142.2926  141.1585  158.4302 C.3     1  UNL1        0.1382
      8 C         141.5731  142.2825  157.7453 C.2     1  UNL1        0.0771
      9 N         140.7663  142.3358  156.4819 N.2     1  UNL1       -0.2483
     10 C         140.2872  143.7451  156.2969 C.2     1  UNL1        0.0770
     11 C         139.4518  144.3894  155.2306 C.2     1  UNL1        0.0184
     12 C         139.1272  145.8515  155.3134 C.2     1  UNL1       -0.0027
     13 C         139.6379  146.6693  156.4625 C.2     1  UNL1       -0.0213
     14 C         140.4732  146.0250  157.5288 C.3     1  UNL1        0.0535
     15 C         140.7979  144.5629  157.4460 C.2     1  UNL1       -0.0029
     16 C         141.5926  143.6590  158.3411 C.2     1  UNL1       -0.0067
     17 C         142.3316  143.9114  159.6218 C.3     1  UNL1        0.0566
     18 C         143.0510  142.7874  160.3067 C.3     1  UNL1        0.1569
     19 C         143.7900  143.0398  161.5875 C.2     1  UNL1        0.2445
     20 O         143.8095  144.4163  162.1833 O.2     1  UNL1       -0.2731
     21 C         142.2731  139.7821  157.8343 C.ar    1  UNL1        0.0046
     22 C         141.0890  138.8872  158.0521 C.ar    1  UNL1        0.0010
     23 C         141.0695  137.5108  157.4563 C.ar    1  UNL1        0.0399
     24 C         142.2340  137.0292  156.6427 C.ar    1  UNL1        0.1764
     25 C         143.4180  137.9240  156.4249 C.ar    1  UNL1        0.1762
     26 C         143.4376  139.3005  157.0208 C.ar    1  UNL1        0.0379
     27 O         144.4126  137.1802  155.5837 O.3     1  UNL1       -0.4346
     28 C         143.8433  135.8257  155.2816 C.3     1  UNL1        0.4294
     29 O         142.4968  135.7324  155.9361 O.3     1  UNL1       -0.4346
@<TRIPOS>BOND
     1     1     2    1
     2     2     3    1
     3     3     4    1
     4     4     5    2
     5     4     6   am
     6     6     7    1
     7     7    21    1
     8    21    22   ar
     9    22    23   ar
    10    23    24   ar
    11    24    25   ar
    12    25    26   ar
    13    25    27    1
    14    27    28    1
    15    28    29    1
    16     7     8    1
    17     8     9    2
    18     9    10    1
    19    10    11    2
    20    11    12    1
    21    12    13    2
    22    13    14    1
    23    14    15    1
    24    15    16    2
    25    16    17    1
    26    18    17    1
    27    18    19    1
    28    19    20    2
    29    19     2   am
    30    18     6    1
    31    26    21   ar
    32    16     8    1
    33    29    24    1
    34    15    10    1
@<TRIPOS>MOLECULE
*****
 29 34 0 0 0
SMALL
GASTEIGER

@<TRIPOS>ATOM
      1 C         136.7846  140.1428  154.7958 C.3     1  UNL1        0.1154
      2 N         138.0032  139.5061  155.3955 N.am    1  UNL1       -0.2682
      3 C         138.7445  140.1987  156.5004 C.3     1  UNL1        0.1794
      4 C         139.9631  139.5620  157.1001 C.2     1  UNL1        0.2467
      5 O         140.7044  140.2545  158.2049 O.2     1  UNL1       -0.2730
      6 N         140.4404  138.2327  156.5949 N.am    1  UNL1       -0.2638
      7 C         141.6590  137.5960  157.1945 C.3     1  UNL1        0.1382
      8 C         142.1363  136.2667  156.6894 C.2     1  UNL1        0.0771
      9 N         143.2966  135.4012  157.0826 N.2     1  UNL1       -0.2483
     10 C         143.2723  134.1737  156.2209 C.2     1  UNL1        0.0770
     11 C         144.1686  132.9725  156.1596 C.2     1  UNL1        0.0184
     12 C         143.8896  131.8782  155.1725 C.2     1  UNL1       -0.0027
     13 C         142.7143  131.9851  154.2466 C.2     1  UNL1       -0.0213
     14 C         141.8181  133.1863  154.3078 C.3     1  UNL1        0.0535
     15 C         142.0971  134.2806  155.2949 C.2     1  UNL1       -0.0029
     16 C         141.3950  135.5741  155.5845 C.2     1  UNL1       -0.0067
     17 C         140.1764  136.2108  154.9848 C.3     1  UNL1        0.0566
     18 C         139.6991  137.5401  155.4900 C.3     1  UNL1        0.1569
     19 C         138.4804  138.1768  154.8903 C.2     1  UNL1        0.2445
     20 O         137.7391  137.4842  153.7854 O.2     1  UNL1       -0.2731
     21 C         142.4003  138.2887  158.2994 C.ar    1  UNL1        0.0046
     22 C         143.2845  139.4603  157.9900 C.ar    1  UNL1        0.0010
     23 C         144.0258  140.1529  159.0948 C.ar    1  UNL1        0.0399
     24 C         143.8830  139.6740  160.5091 C.ar    1  UNL1        0.1764
     25 C         142.9989  138.5024  160.8185 C.ar    1  UNL1        0.1762
     26 C         142.2575  137.8097  159.7136 C.ar    1  UNL1        0.0379
     27 O         143.0543  138.2577  162.2974 O.3     1  UNL1       -0.4346
     28 C         143.9727  139.2780  162.9020 C.3     1  UNL1        0.4294
     29 O         144.4848  140.1534  161.7967 O.3     1  UNL1       -0.4346
@<TRIPOS>BOND
     1     1     2    1
     2     2     3    1
     3     3     4    1
     4     4     5    2
     5     4     6   am
     6     6     7    1
     7     7    21    1
     8    21    22   ar
     9    22    23   ar
    10    23    24   ar
    11    24    25   ar
    12    25    26   ar
    13    25    27    1
    14    27    28    1
    15    28    29    1
    16     7     8    1
    17     8     9    2
    18     9    10    1
    19    10    11    2
    20    11    12    1
    21    12    13    2
    22    13    14    1
    23    14    15    1
    24    15    16    2
    25    16    17    1
    26    18    17    1
    27    18    19    1
    28    19    20    2
    29    19     2   am
    30    18     6    1
    31    26    21   ar
    32    16     8    1
    33    29    24    1
    34    15    10    1
@<TRIPOS>MOLECULE
*****
 29 34 0 0 0
SMALL
GASTEIGER

@<TRIPOS>ATOM
      1 C         136.9684  141.9583  156.7296 C.3     1  UNL1        0.1154
      2 N         138.1024  141.0722  157.1528 N.am    1  UNL1       -0.2682
      3 C         138.8705  141.3825  158.4033 C.3     1  UNL1        0.1794
      4 C         140.0043  140.4964  158.8263 C.2     1  UNL1        0.2467
      5 O         140.7724  140.8067  160.0768 O.2     1  UNL1       -0.2730
      6 N         140.3701  139.2998  157.9990 N.am    1  UNL1       -0.2638
      7 C         141.5040  138.4137  158.4221 C.3     1  UNL1        0.1382
      8 C         141.8698  137.2172  157.5947 C.2     1  UNL1        0.0771
      9 N         142.9306  136.1695  157.7591 N.2     1  UNL1       -0.2483
     10 C         142.8182  135.2116  156.6102 C.2     1  UNL1        0.0770
     11 C         143.5990  133.9834  156.2474 C.2     1  UNL1        0.0184
     12 C         143.2494  133.2108  155.0101 C.2     1  UNL1       -0.0027
     13 C         142.1191  133.6665  154.1356 C.2     1  UNL1       -0.0213
     14 C         141.3383  134.8947  154.4985 C.3     1  UNL1        0.0535
     15 C         141.6878  135.6673  155.7358 C.2     1  UNL1       -0.0029
     16 C         141.1017  136.9068  156.3442 C.2     1  UNL1       -0.0067
     17 C         139.9679  137.7929  155.9211 C.3     1  UNL1        0.0566
     18 C         139.6021  138.9895  156.7485 C.3     1  UNL1        0.1569
     19 C         138.4681  139.8757  156.3253 C.2     1  UNL1        0.2445
     20 O         137.7000  139.5653  155.0748 O.2     1  UNL1       -0.2731
     21 C         142.2721  138.7241  159.6725 C.ar    1  UNL1        0.0046
     22 C         143.4998  139.5833  159.6049 C.ar    1  UNL1        0.0010
     23 C         144.2679  139.8937  160.8552 C.ar    1  UNL1        0.0399
     24 C         143.8083  139.3449  162.1734 C.ar    1  UNL1        0.1764
     25 C         142.5807  138.4857  162.2412 C.ar    1  UNL1        0.1762
     26 C         141.8125  138.1753  160.9906 C.ar    1  UNL1        0.0379
     27 O         142.3707  138.0893  163.6725 O.3     1  UNL1       -0.4346
     28 C         143.4686  138.7035  164.4895 C.3     1  UNL1        0.4294
     29 O         144.3571  139.4795  163.5629 O.3     1  UNL1       -0.4346
@<TRIPOS>BOND
     1     1     2    1
     2     2     3    1
     3     3     4    1
     4     4     5    2
     5     4     6   am
     6     6     7    1
     7     7    21    1
     8    21    22   ar
     9    22    23   ar
    10    23    24   ar
    11    24    25   ar
    12    25    26   ar
    13    25    27    1
    14    27    28    1
    15    28    29    1
    16     7     8    1
    17     8     9    2
    18     9    10    1
    19    10    11    2
    20    11    12    1
    21    12    13    2
    22    13    14    1
    23    14    15    1
    24    15    16    2
    25    16    17    1
    26    18    17    1
    27    18    19    1
    28    19    20    2
    29    19     2   am
    30    18     6    1
    31    26    21   ar
    32    16     8    1
    33    29    24    1
    34    15    10    1
@<TRIPOS>MOLECULE
*****
 29 34 0 0 0
SMALL
GASTEIGER

@<TRIPOS>ATOM
      1 C         139.4038  146.9577  157.2611 C.3     1  UNL1        0.1154
      2 N         140.4285  145.9404  157.6676 N.am    1  UNL1       -0.2682
      3 C         141.3551  145.3580  156.6418 C.3     1  UNL1        0.1794
      4 C         142.3797  144.3407  157.0483 C.2     1  UNL1        0.2467
      5 O         143.3063  143.7583  156.0226 O.2     1  UNL1       -0.2730
      6 N         142.4778  143.9059  158.4805 N.am    1  UNL1       -0.2638
      7 C         143.5025  142.8887  158.8870 C.3     1  UNL1        0.1382
      8 C         143.6006  142.4539  160.3193 C.2     1  UNL1        0.0771
      9 N         144.5034  141.4766  161.0119 N.2     1  UNL1       -0.2483
     10 C         144.1349  141.4550  162.4658 C.2     1  UNL1        0.0770
     11 C         144.6827  140.6822  163.6288 C.2     1  UNL1        0.0184
     12 C         144.0999  140.8733  164.9976 C.2     1  UNL1       -0.0027
     13 C         142.9693  141.8373  165.2035 C.2     1  UNL1       -0.0213
     14 C         142.4214  142.6101  164.0405 C.3     1  UNL1        0.0535
     15 C         143.0042  142.4190  162.6717 C.2     1  UNL1       -0.0029
     16 C         142.6741  143.0363  161.3450 C.2     1  UNL1       -0.0067
     17 C         141.6494  144.0536  160.9386 C.3     1  UNL1        0.0566
     18 C         141.5513  144.4884  159.5063 C.3     1  UNL1        0.1569
     19 C         140.5265  145.5057  159.0998 C.2     1  UNL1        0.2445
     20 O         139.6000  146.0881  160.1256 O.2     1  UNL1       -0.2731
     21 C         144.4291  142.3062  157.8612 C.ar    1  UNL1        0.0046
     22 C         143.9829  141.1477  157.0192 C.ar    1  UNL1        0.0010
     23 C         144.9093  140.5652  155.9935 C.ar    1  UNL1        0.0399
     24 C         146.2821  141.1413  155.8096 C.ar    1  UNL1        0.1764
     25 C         146.7283  142.2997  156.6515 C.ar    1  UNL1        0.1762
     26 C         145.8017  142.8822  157.6773 C.ar    1  UNL1        0.0379
     27 O         148.1287  142.6542  156.2474 O.3     1  UNL1       -0.4346
     28 C         148.5480  141.7148  155.1558 C.3     1  UNL1        0.4294
     29 O         147.4067  140.7797  154.8852 O.3     1  UNL1       -0.4346
@<TRIPOS>BOND
     1     1     2    1
     2     2     3    1
     3     3     4    1
     4     4     5    2
     5     4     6   am
     6     6     7    1
     7     7    21    1
     8    21    22   ar
     9    22    23   ar
    10    23    24   ar
    11    24    25   ar
    12    25    26   ar
    13    25    27    1
    14    27    28    1
    15    28    29    1
    16     7     8    1
    17     8     9    2
    18     9    10    1
    19    10    11    2
    20    11    12    1
    21    12    13    2
    22    13    14    1
    23    14    15    1
    24    15    16    2
    25    16    17    1
    26    18    17    1
    27    18    19    1
    28    19    20    2
    29    19     2   am
    30    18     6    1
    31    26    21   ar
    32    16     8    1
    33    29    24    1
    34    15    10    1
@<TRIPOS>MOLECULE
*****
 29 34 0 0 0
SMALL
GASTEIGER

@<TRIPOS>ATOM
      1 C         144.4811  138.8279  155.0805 C.3     1  UNL1        0.1154
      2 N         143.3576  139.6146  155.6880 N.am    1  UNL1       -0.2682
      3 C         142.0057  139.6158  155.0381 C.3     1  UNL1        0.1794
      4 C         140.8823  140.4025  155.6456 C.2     1  UNL1        0.2467
      5 O         139.5304  140.4038  154.9958 O.2     1  UNL1       -0.2730
      6 N         141.1108  141.1880  156.9029 N.am    1  UNL1       -0.2638
      7 C         139.9874  141.9747  157.5104 C.3     1  UNL1        0.1382
      8 C         140.2159  142.7601  158.7677 C.2     1  UNL1        0.0771
      9 N         139.3068  143.6238  159.5909 N.2     1  UNL1       -0.2483
     10 C         140.0968  144.1563  160.7495 C.2     1  UNL1        0.0770
     11 C         139.7242  145.0589  161.8881 C.2     1  UNL1        0.0184
     12 C         140.7491  145.4269  162.9196 C.2     1  UNL1       -0.0027
     13 C         142.1466  144.8924  162.8125 C.2     1  UNL1       -0.0213
     14 C         142.5191  143.9899  161.6739 C.3     1  UNL1        0.0535
     15 C         141.4942  143.6218  160.6423 C.2     1  UNL1       -0.0029
     16 C         141.5678  142.7589  159.4176 C.2     1  UNL1       -0.0067
     17 C         142.6912  141.9722  158.8101 C.3     1  UNL1        0.0566
     18 C         142.4627  141.1868  157.5528 C.3     1  UNL1        0.1569
     19 C         143.5862  140.4001  156.9453 C.2     1  UNL1        0.2445
     20 O         144.9381  140.3988  157.5951 O.2     1  UNL1       -0.2731
     21 C         138.6355  141.9759  156.8606 C.ar    1  UNL1        0.0046
     22 C         138.3073  142.9992  155.8140 C.ar    1  UNL1        0.0010
     23 C         136.9554  143.0005  155.1641 C.ar    1  UNL1        0.0399
     24 C         135.9317  141.9784  155.5608 C.ar    1  UNL1        0.1764
     25 C         136.2598  140.9551  156.6073 C.ar    1  UNL1        0.1762
     26 C         137.6118  140.9539  157.2572 C.ar    1  UNL1        0.0379
     27 O         135.0567  140.0784  156.7916 O.3     1  UNL1       -0.4346
     28 C         133.9850  140.5598  155.8590 C.3     1  UNL1        0.4294
     29 O         134.5258  141.7341  155.0983 O.3     1  UNL1       -0.4346
@<TRIPOS>BOND
     1     1     2    1
     2     2     3    1
     3     3     4    1
     4     4     5    2
     5     4     6   am
     6     6     7    1
     7     7    21    1
     8    21    22   ar
     9    22    23   ar
    10    23    24   ar
    11    24    25   ar
    12    25    26   ar
    13    25    27    1
    14    27    28    1
    15    28    29    1
    16     7     8    1
    17     8     9    2
    18     9    10    1
    19    10    11    2
    20    11    12    1
    21    12    13    2
    22    13    14    1
    23    14    15    1
    24    15    16    2
    25    16    17    1
    26    18    17    1
    27    18    19    1
    28    19    20    2
    29    19     2   am
    30    18     6    1
    31    26    21   ar
    32    16     8    1
    33    29    24    1
    34    15    10    1
@<TRIPOS>MOLECULE
*****
 29 34 0 0 0
SMALL
GASTEIGER

@<TRIPOS>ATOM
      1 C         139.2182  146.8767  161.3200 C.3     1  UNL1        0.1154
      2 N         140.1382  145.6930  161.2667 N.am    1  UNL1       -0.2682
      3 C         140.8549  145.3569  159.9926 C.3     1  UNL1        0.1794
      4 C         141.7748  144.1733  159.9394 C.2     1  UNL1        0.2467
      5 O         142.4916  143.8372  158.6654 O.2     1  UNL1       -0.2730
      6 N         141.9779  143.3257  161.1602 N.am    1  UNL1       -0.2638
      7 C         142.8978  142.1421  161.1069 C.3     1  UNL1        0.1382
      8 C         143.1008  141.2946  162.3278 C.2     1  UNL1        0.0771
      9 N         143.9389  140.0754  162.5752 N.2     1  UNL1       -0.2483
     10 C         143.7401  139.6580  164.0021 C.2     1  UNL1        0.0770
     11 C         144.3100  138.5268  164.8057 C.2     1  UNL1        0.0184
     12 C         143.9189  138.3569  166.2438 C.2     1  UNL1       -0.0027
     13 C         142.9579  139.3181  166.8783 C.2     1  UNL1       -0.0213
     14 C         142.3880  140.4492  166.0747 C.3     1  UNL1        0.0535
     15 C         142.7792  140.6191  164.6367 C.2     1  UNL1       -0.0029
     16 C         142.3841  141.6306  163.6018 C.2     1  UNL1       -0.0067
     17 C         141.4642  142.8142  163.6551 C.3     1  UNL1        0.0566
     18 C         141.2611  143.6618  162.4343 C.3     1  UNL1        0.1569
     19 C         140.3412  144.8455  162.4876 C.2     1  UNL1        0.2445
     20 O         139.6244  145.1815  163.7616 O.2     1  UNL1       -0.2731
     21 C         143.6145  141.8061  159.8328 C.ar    1  UNL1        0.0046
     22 C         143.1027  140.7047  158.9524 C.ar    1  UNL1        0.0010
     23 C         143.8194  140.3686  157.6783 C.ar    1  UNL1        0.0399
     24 C         145.0480  141.1339  157.2846 C.ar    1  UNL1        0.1764
     25 C         145.5598  142.2352  158.1650 C.ar    1  UNL1        0.1762
     26 C         144.8430  142.5713  159.4392 C.ar    1  UNL1        0.0379
     27 O         146.7861  142.8113  157.5213 O.3     1  UNL1       -0.4346
     28 C         147.0323  142.0659  156.2431 C.3     1  UNL1        0.4294
     29 O         145.9580  141.0292  156.0968 O.3     1  UNL1       -0.4346
@<TRIPOS>BOND
     1     1     2    1
     2     2     3    1
     3     3     4    1
     4     4     5    2
     5     4     6   am
     6     6     7    1
     7     7    21    1
     8    21    22   ar
     9    22    23   ar
    10    23    24   ar
    11    24    25   ar
    12    25    26   ar
    13    25    27    1
    14    27    28    1
    15    28    29    1
    16     7     8    1
    17     8     9    2
    18     9    10    1
    19    10    11    2
    20    11    12    1
    21    12    13    2
    22    13    14    1
    23    14    15    1
    24    15    16    2
    25    16    17    1
    26    18    17    1
    27    18    19    1
    28    19    20    2
    29    19     2   am
    30    18     6    1
    31    26    21   ar
    32    16     8    1
    33    29    24    1
    34    15    10    1
