@<TRIPOS>MOLECULE
*****
 30 35 0 0 0
SMALL
GASTEIGER

@<TRIPOS>ATOM
      1 N         138.6579  145.2817  165.7709 N.pl3   1  UNL1       -0.3133
      2 C         138.4212  144.0787  164.9069 C.2     1  UNL1        0.2770
      3 N         138.9957  142.7101  165.1243 N.2     1  UNL1       -0.2202
      4 C         138.4980  141.8186  164.0255 C.3     1  UNL1        0.1580
      5 C         137.6160  142.6362  163.1290 C.3     1  UNL1        0.2351
      6 O         137.5685  144.0329  163.6737 O.2     1  UNL1       -0.4478
      7 C         139.3999  141.1314  165.0075 C.ar    1  UNL1        0.0357
      8 C         139.9749  141.8979  166.1615 C.ar    1  UNL1        0.0007
      9 C         140.8769  141.2107  167.1434 C.ar    1  UNL1        0.0015
     10 C         141.2038  139.7569  166.9713 C.ar    1  UNL1        0.0031
     11 C         140.6288  138.9903  165.8173 C.ar    1  UNL1        0.0366
     12 C         139.7268  139.6776  164.8354 C.ar    1  UNL1        0.1360
     13 O         139.1518  138.9111  163.6813 O.3     1  UNL1       -0.4826
     14 C         138.2499  139.5983  162.6994 C.3     1  UNL1        0.1395
     15 C         138.3450  138.1822  162.2140 C.3     1  UNL1        0.0404
     16 C         137.4367  138.5142  161.0673 C.3     1  UNL1        0.0072
     17 C         137.3416  139.9304  161.5527 C.3     1  UNL1        0.0404
     18 C         137.9230  141.0521  162.8715 C.3     1  UNL1        0.1141
     19 C         138.1746  140.8603  163.1454 C.3     1  UNL1        0.1501
     20 O         137.9102  141.0618  162.8575 O.3     1  UNL1       -0.3532
     21 C         138.1746  140.8603  163.1454 C.3     1  UNL1        0.1501
     22 H         139.2370  145.2119  166.5641 H       1  UNL1        0.1466
     23 H         138.2343  146.1412  165.5449 H       1  UNL1        0.1466
     24 C         141.4519  141.9773  168.2974 C.ar    1  UNL1        0.0214
     25 C         140.5693  142.8685  169.1200 C.ar    1  UNL1        0.0990
     26 N         141.1443  143.6351  170.2740 N.ar    1  UNL1       -0.2400
     27 C         142.6019  143.5104  170.6055 C.ar    1  UNL1        0.1284
     28 C         143.4845  142.6190  169.7829 C.ar    1  UNL1        0.1592
     29 F         144.9421  142.4943  170.1144 F       1  UNL1       -0.2025
     30 C         142.9095  141.8525  168.6289 C.ar    1  UNL1        0.0328
@<TRIPOS>BOND
     1     1     2    1
     2     2     3    2
     3     3     4    1
     4     4     5    1
     5     5     6    1
     6     4     7    1
     7     7     8   ar
     8     8     9   ar
     9     9    24    1
    10    24    25   ar
    11    25    26   ar
    12    26    27   ar
    13    27    28   ar
    14    28    29    1
    15    28    30   ar
    16     9    10   ar
    17    10    11   ar
    18    11    12   ar
    19    12    13    1
    20    13    14    1
    21    14    15    1
    22    15    16    1
    23    16    17    1
    24    14    18    1
    25    18    19    1
    26    19    20    1
    27    20    21    1
    28     6     2    1
    29    12     7   ar
    30    17    14    1
    31    21    18    1
    32    18     4    1
    33    30    24   ar
    34     1    22    1
    35     1    23    1
@<TRIPOS>MOLECULE
*****
 30 35 0 0 0
SMALL
GASTEIGER

@<TRIPOS>ATOM
      1 N         137.7286  138.2754  166.5869 N.pl3   1  UNL1       -0.3133
      2 C         138.7809  138.2055  165.5203 C.2     1  UNL1        0.2770
      3 N         140.0366  139.0243  165.4654 N.2     1  UNL1       -0.2202
      4 C         140.7940  138.6293  164.2325 C.3     1  UNL1        0.1580
      5 C         140.0065  137.5663  163.5254 C.3     1  UNL1        0.2351
      6 O         138.7623  137.3044  164.3213 O.2     1  UNL1       -0.4478
      7 C         141.4671  139.6938  165.0472 C.ar    1  UNL1        0.0357
      8 C         140.8261  140.1900  166.3093 C.ar    1  UNL1        0.0007
      9 C         141.4992  141.2545  167.1240 C.ar    1  UNL1        0.0015
     10 C         142.8134  141.8227  166.6767 C.ar    1  UNL1        0.0031
     11 C         143.4545  141.3264  165.4147 C.ar    1  UNL1        0.0366
     12 C         142.7813  140.2619  164.5999 C.ar    1  UNL1        0.1360
     13 O         143.4223  139.7657  163.3379 O.3     1  UNL1       -0.4826
     14 C         142.7492  138.7012  162.5231 C.3     1  UNL1        0.1395
     15 C         144.0139  139.0169  161.7807 C.3     1  UNL1        0.0404
     16 C         143.6558  137.9994  160.7382 C.3     1  UNL1        0.0072
     17 C         142.3911  137.6838  161.4807 C.3     1  UNL1        0.0404
     18 C         141.4350  138.1331  162.9704 C.3     1  UNL1        0.1141
     19 C         141.6228  138.4300  163.1977 C.3     1  UNL1        0.1501
     20 O         141.4255  138.1179  162.9588 O.3     1  UNL1       -0.3532
     21 C         141.6228  138.4300  163.1977 C.3     1  UNL1        0.1501
     22 H         137.8309  138.9026  167.3389 H       1  UNL1        0.1466
     23 H         136.9357  137.6942  166.5350 H       1  UNL1        0.1466
     24 C         140.8581  141.7507  168.3861 C.ar    1  UNL1        0.0214
     25 C         140.1972  140.7830  169.3223 C.ar    1  UNL1        0.0990
     26 N         139.5561  141.2793  170.5844 N.ar    1  UNL1       -0.2400
     27 C         139.5761  142.7433  170.9102 C.ar    1  UNL1        0.1284
     28 C         140.2371  143.7111  169.9740 C.ar    1  UNL1        0.1592
     29 F         140.2570  145.1751  170.2998 F       1  UNL1       -0.2025
     30 C         140.8781  143.2148  168.7119 C.ar    1  UNL1        0.0328
@<TRIPOS>BOND
     1     1     2    1
     2     2     3    2
     3     3     4    1
     4     4     5    1
     5     5     6    1
     6     4     7    1
     7     7     8   ar
     8     8     9   ar
     9     9    24    1
    10    24    25   ar
    11    25    26   ar
    12    26    27   ar
    13    27    28   ar
    14    28    29    1
    15    28    30   ar
    16     9    10   ar
    17    10    11   ar
    18    11    12   ar
    19    12    13    1
    20    13    14    1
    21    14    15    1
    22    15    16    1
    23    16    17    1
    24    14    18    1
    25    18    19    1
    26    19    20    1
    27    20    21    1
    28     6     2    1
    29    12     7   ar
    30    17    14    1
    31    21    18    1
    32    18     4    1
    33    30    24   ar
    34     1    22    1
    35     1    23    1
@<TRIPOS>MOLECULE
*****
 30 35 0 0 0
SMALL
GASTEIGER

@<TRIPOS>ATOM
      1 N         143.6480  142.8669  165.5687 N.pl3   1  UNL1       -0.3133
      2 C         142.9034  142.0383  164.5642 C.2     1  UNL1        0.2770
      3 N         141.6889  141.2015  164.8380 N.2     1  UNL1       -0.2202
      4 C         141.2774  140.5471  163.5527 C.3     1  UNL1        0.1580
      5 C         142.2377  140.9793  162.4844 C.3     1  UNL1        0.2351
      6 O         143.2426  141.9009  163.1096 O.2     1  UNL1       -0.4478
      7 C         140.4004  140.2039  164.7201 C.ar    1  UNL1        0.0357
      8 C         140.6900  140.7851  166.0722 C.ar    1  UNL1        0.0007
      9 C         139.8129  140.4419  167.2397 C.ar    1  UNL1        0.0015
     10 C         138.6461  139.5175  167.0549 C.ar    1  UNL1        0.0031
     11 C         138.3564  138.9363  165.7028 C.ar    1  UNL1        0.0366
     12 C         139.2336  139.2795  164.5353 C.ar    1  UNL1        0.1360
     13 O         138.9439  138.6983  163.1832 O.3     1  UNL1       -0.4826
     14 C         139.8210  139.0415  162.0158 C.3     1  UNL1        0.1395
     15 C         138.7817  138.1130  161.4608 C.3     1  UNL1        0.0404
     16 C         139.4113  138.2196  160.1035 C.3     1  UNL1        0.0072
     17 C         140.4506  139.1481  160.6584 C.3     1  UNL1        0.0404
     18 C         140.9878  139.9659  162.2005 C.3     1  UNL1        0.1141
     19 C         140.7431  139.8701  162.5262 C.3     1  UNL1        0.1501
     20 O         141.0003  139.9708  162.1839 O.3     1  UNL1       -0.3532
     21 C         140.7431  139.8701  162.5262 C.3     1  UNL1        0.1501
     22 H         143.3466  142.8931  166.5055 H       1  UNL1        0.1466
     23 H         144.4381  143.3844  165.2911 H       1  UNL1        0.1466
     24 C         140.1026  141.0231  168.5918 C.ar    1  UNL1        0.0214
     25 C         140.0679  140.1461  169.8082 C.ar    1  UNL1        0.0990
     26 N         140.3575  140.7273  171.1604 N.ar    1  UNL1       -0.2400
     27 C         140.6819  142.1854  171.2961 C.ar    1  UNL1        0.1284
     28 C         140.7167  143.0625  170.0797 C.ar    1  UNL1        0.1592
     29 F         141.0411  144.5207  170.2154 F       1  UNL1       -0.2025
     30 C         140.4270  142.4813  168.7275 C.ar    1  UNL1        0.0328
@<TRIPOS>BOND
     1     1     2    1
     2     2     3    2
     3     3     4    1
     4     4     5    1
     5     5     6    1
     6     4     7    1
     7     7     8   ar
     8     8     9   ar
     9     9    24    1
    10    24    25   ar
    11    25    26   ar
    12    26    27   ar
    13    27    28   ar
    14    28    29    1
    15    28    30   ar
    16     9    10   ar
    17    10    11   ar
    18    11    12   ar
    19    12    13    1
    20    13    14    1
    21    14    15    1
    22    15    16    1
    23    16    17    1
    24    14    18    1
    25    18    19    1
    26    19    20    1
    27    20    21    1
    28     6     2    1
    29    12     7   ar
    30    17    14    1
    31    21    18    1
    32    18     4    1
    33    30    24   ar
    34     1    22    1
    35     1    23    1
@<TRIPOS>MOLECULE
*****
 30 35 0 0 0
SMALL
GASTEIGER

@<TRIPOS>ATOM
      1 N         143.9224  140.3486  162.0149 N.pl3   1  UNL1       -0.3133
      2 C         143.6415  140.0809  163.4638 C.2     1  UNL1        0.2770
      3 N         142.7077  140.8624  164.3399 N.2     1  UNL1       -0.2202
      4 C         142.7341  140.2493  165.7086 C.3     1  UNL1        0.1580
      5 C         143.6841  139.0888  165.6784 C.3     1  UNL1        0.2351
      6 O         144.2449  138.9848  164.2910 O.2     1  UNL1       -0.4478
      7 C         141.8186  141.4313  165.5871 C.ar    1  UNL1        0.0357
      8 C         141.6889  142.1478  164.2757 C.ar    1  UNL1        0.0007
      9 C         140.7735  143.3298  164.1542 C.ar    1  UNL1        0.0015
     10 C         139.9877  143.7954  165.3442 C.ar    1  UNL1        0.0031
     11 C         140.1175  143.0789  166.6556 C.ar    1  UNL1        0.0366
     12 C         141.0329  141.8968  166.7770 C.ar    1  UNL1        0.1360
     13 O         141.1627  141.1803  168.0884 O.3     1  UNL1       -0.4826
     14 C         142.0781  139.9983  168.2099 C.3     1  UNL1        0.1395
     15 C         141.4753  140.1642  169.5734 C.3     1  UNL1        0.0404
     16 C         142.2616  138.9849  170.0646 C.3     1  UNL1        0.0072
     17 C         142.8644  138.8189  168.7010 C.3     1  UNL1        0.0404
     18 C         142.8638  139.5328  167.0200 C.3     1  UNL1        0.1141
     19 C         142.6084  139.8625  166.9861 C.3     1  UNL1        0.1501
     20 O         142.8768  139.5159  167.0217 O.3     1  UNL1       -0.3532
     21 C         142.6084  139.8625  166.9861 C.3     1  UNL1        0.1501
     22 H         143.4746  141.0961  161.5566 H       1  UNL1        0.1466
     23 H         144.5546  139.7769  161.5223 H       1  UNL1        0.1466
     24 C         140.6437  144.0464  162.8428 C.ar    1  UNL1        0.0214
     25 C         139.5773  145.0849  162.6579 C.ar    1  UNL1        0.0990
     26 N         139.4476  145.8014  161.3465 N.ar    1  UNL1       -0.2400
     27 C         140.3842  145.4794  160.2201 C.ar    1  UNL1        0.1284
     28 C         141.4507  144.4409  160.4050 C.ar    1  UNL1        0.1592
     29 F         142.3873  144.1189  159.2785 F       1  UNL1       -0.2025
     30 C         141.5804  143.7243  161.7163 C.ar    1  UNL1        0.0328
@<TRIPOS>BOND
     1     1     2    1
     2     2     3    2
     3     3     4    1
     4     4     5    1
     5     5     6    1
     6     4     7    1
     7     7     8   ar
     8     8     9   ar
     9     9    24    1
    10    24    25   ar
    11    25    26   ar
    12    26    27   ar
    13    27    28   ar
    14    28    29    1
    15    28    30   ar
    16     9    10   ar
    17    10    11   ar
    18    11    12   ar
    19    12    13    1
    20    13    14    1
    21    14    15    1
    22    15    16    1
    23    16    17    1
    24    14    18    1
    25    18    19    1
    26    19    20    1
    27    20    21    1
    28     6     2    1
    29    12     7   ar
    30    17    14    1
    31    21    18    1
    32    18     4    1
    33    30    24   ar
    34     1    22    1
    35     1    23    1
@<TRIPOS>MOLECULE
*****
 30 35 0 0 0
SMALL
GASTEIGER

@<TRIPOS>ATOM
      1 N         137.9754  139.7355  162.5570 N.pl3   1  UNL1       -0.3133
      2 C         138.6044  139.7905  163.9176 C.2     1  UNL1        0.2770
      3 N         140.0680  139.6575  164.2185 N.2     1  UNL1       -0.2202
      4 C         140.2484  139.7730  165.7030 C.3     1  UNL1        0.1580
      5 C         138.8963  139.9774  166.3197 C.3     1  UNL1        0.2351
      6 O         137.8803  139.9882  165.2163 O.2     1  UNL1       -0.4478
      7 C         141.5272  139.5640  164.9474 C.ar    1  UNL1        0.0357
      8 C         141.5025  139.4306  163.4536 C.ar    1  UNL1        0.0007
      9 C         142.7813  139.2216  162.6980 C.ar    1  UNL1        0.0015
     10 C         144.0849  139.1460  163.4363 C.ar    1  UNL1        0.0031
     11 C         144.1096  139.2794  164.9302 C.ar    1  UNL1        0.0366
     12 C         142.8307  139.4884  165.6857 C.ar    1  UNL1        0.1360
     13 O         142.8554  139.6218  167.1796 O.3     1  UNL1       -0.4826
     14 C         141.5766  139.8308  167.9351 C.3     1  UNL1        0.1395
     15 C         142.6484  139.8089  168.9844 C.3     1  UNL1        0.0404
     16 C         141.6115  140.0195  170.0479 C.3     1  UNL1        0.0072
     17 C         140.5398  140.0413  168.9986 C.3     1  UNL1        0.0404
     18 C         140.2731  139.9064  167.1969 C.3     1  UNL1        0.1141
     19 C         140.6299  139.8481  166.9861 C.3     1  UNL1        0.1501
     20 O         140.2549  139.9094  167.2076 O.3     1  UNL1       -0.3532
     21 C         140.6299  139.8481  166.9861 C.3     1  UNL1        0.1501
     22 H         138.5375  139.6012  161.7599 H       1  UNL1        0.1466
     23 H         137.0005  139.8336  162.4610 H       1  UNL1        0.1466
     24 C         142.7566  139.0882  161.2042 C.ar    1  UNL1        0.0214
     25 C         143.9832  139.4081  160.4022 C.ar    1  UNL1        0.0990
     26 N         143.9584  139.2747  158.9084 N.ar    1  UNL1       -0.2400
     27 C         142.7072  138.8214  158.2165 C.ar    1  UNL1        0.1284
     28 C         141.4805  138.5014  159.0184 C.ar    1  UNL1        0.1592
     29 F         140.2293  138.0481  158.3265 F       1  UNL1       -0.2025
     30 C         141.5052  138.6348  160.5123 C.ar    1  UNL1        0.0328
@<TRIPOS>BOND
     1     1     2    1
     2     2     3    2
     3     3     4    1
     4     4     5    1
     5     5     6    1
     6     4     7    1
     7     7     8   ar
     8     8     9   ar
     9     9    24    1
    10    24    25   ar
    11    25    26   ar
    12    26    27   ar
    13    27    28   ar
    14    28    29    1
    15    28    30   ar
    16     9    10   ar
    17    10    11   ar
    18    11    12   ar
    19    12    13    1
    20    13    14    1
    21    14    15    1
    22    15    16    1
    23    16    17    1
    24    14    18    1
    25    18    19    1
    26    19    20    1
    27    20    21    1
    28     6     2    1
    29    12     7   ar
    30    17    14    1
    31    21    18    1
    32    18     4    1
    33    30    24   ar
    34     1    22    1
    35     1    23    1
@<TRIPOS>MOLECULE
*****
 30 35 0 0 0
SMALL
GASTEIGER

@<TRIPOS>ATOM
      1 N         137.4000  141.6846  164.3139 N.pl3   1  UNL1       -0.3133
      2 C         138.3709  140.9650  163.4253 C.2     1  UNL1        0.2770
      3 N         139.6692  140.3484  163.8548 N.2     1  UNL1       -0.2202
      4 C         140.3147  139.7381  162.6462 C.3     1  UNL1        0.1580
      5 C         139.4153  139.9775  161.4698 C.3     1  UNL1        0.2351
      6 O         138.2140  140.7357  161.9513 O.2     1  UNL1       -0.4478
      7 C         141.1075  139.5753  163.9091 C.ar    1  UNL1        0.0357
      8 C         140.5863  140.1353  165.1993 C.ar    1  UNL1        0.0007
      9 C         141.3792  139.9725  166.4622 C.ar    1  UNL1        0.0015
     10 C         142.6933  139.2497  166.4348 C.ar    1  UNL1        0.0031
     11 C         143.2145  138.6897  165.1446 C.ar    1  UNL1        0.0366
     12 C         142.4216  138.8525  163.8817 C.ar    1  UNL1        0.1360
     13 O         142.9428  138.2925  162.5914 O.3     1  UNL1       -0.4826
     14 C         142.1500  138.4553  161.3286 C.3     1  UNL1        0.1395
     15 C         143.3787  137.6978  160.9206 C.3     1  UNL1        0.0404
     16 C         142.8871  137.6634  159.5038 C.3     1  UNL1        0.0072
     17 C         141.6583  138.4209  159.9118 C.3     1  UNL1        0.0404
     18 C         140.8359  139.1781  161.3560 C.3     1  UNL1        0.1141
     19 C         141.0571  139.1327  161.7083 C.3     1  UNL1        0.1501
     20 O         140.8246  139.1804  161.3380 O.3     1  UNL1       -0.3532
     21 C         141.0571  139.1327  161.7083 C.3     1  UNL1        0.1501
     22 H         137.5925  141.7846  165.2742 H       1  UNL1        0.1466
     23 H         136.5702  142.0567  163.9368 H       1  UNL1        0.1466
     24 C         140.8580  140.5325  167.7524 C.ar    1  UNL1        0.0214
     25 C         141.5999  141.6371  168.4446 C.ar    1  UNL1        0.0990
     26 N         141.0787  142.1971  169.7349 N.ar    1  UNL1       -0.2400
     27 C         139.8155  141.6524  170.3330 C.ar    1  UNL1        0.1284
     28 C         139.0735  140.5477  169.6408 C.ar    1  UNL1        0.1592
     29 F         137.8104  140.0030  170.2388 F       1  UNL1       -0.2025
     30 C         139.5947  139.9877  168.3505 C.ar    1  UNL1        0.0328
@<TRIPOS>BOND
     1     1     2    1
     2     2     3    2
     3     3     4    1
     4     4     5    1
     5     5     6    1
     6     4     7    1
     7     7     8   ar
     8     8     9   ar
     9     9    24    1
    10    24    25   ar
    11    25    26   ar
    12    26    27   ar
    13    27    28   ar
    14    28    29    1
    15    28    30   ar
    16     9    10   ar
    17    10    11   ar
    18    11    12   ar
    19    12    13    1
    20    13    14    1
    21    14    15    1
    22    15    16    1
    23    16    17    1
    24    14    18    1
    25    18    19    1
    26    19    20    1
    27    20    21    1
    28     6     2    1
    29    12     7   ar
    30    17    14    1
    31    21    18    1
    32    18     4    1
    33    30    24   ar
    34     1    22    1
    35     1    23    1
@<TRIPOS>MOLECULE
*****
 30 35 0 0 0
SMALL
GASTEIGER

@<TRIPOS>ATOM
      1 N         143.9259  143.7922  161.6384 N.pl3   1  UNL1       -0.3133
      2 C         143.7462  143.3880  163.0717 C.2     1  UNL1        0.2770
      3 N         143.3098  142.0380  163.5590 N.2     1  UNL1       -0.2202
      4 C         143.2652  142.0784  165.0577 C.3     1  UNL1        0.1580
      5 C         143.6740  143.4533  165.4967 C.3     1  UNL1        0.2351
      6 O         143.9713  144.2626  164.2693 O.2     1  UNL1       -0.4478
      7 C         142.8774  140.7534  164.4712 C.ar    1  UNL1        0.0357
      8 C         142.8753  140.5635  162.9833 C.ar    1  UNL1        0.0007
      9 C         142.4876  139.2385  162.3969 C.ar    1  UNL1        0.0015
     10 C         142.1019  138.1033  163.2983 C.ar    1  UNL1        0.0031
     11 C         142.1040  138.2932  164.7863 C.ar    1  UNL1        0.0366
     12 C         142.4918  139.6183  165.3727 C.ar    1  UNL1        0.1360
     13 O         142.4938  139.8081  166.8606 O.3     1  UNL1       -0.4826
     14 C         142.8816  141.1331  167.4471 C.3     1  UNL1        0.1395
     15 C         142.5673  140.2630  168.6279 C.3     1  UNL1        0.0404
     16 C         142.8846  141.4017  169.5514 C.3     1  UNL1        0.0072
     17 C         143.1989  142.2718  168.3706 C.3     1  UNL1        0.0404
     18 C         143.2673  142.2683  166.5456 C.3     1  UNL1        0.1141
     19 C         143.1591  141.8986  166.3820 C.3     1  UNL1        0.1501
     20 O         143.2728  142.2871  166.5540 O.3     1  UNL1       -0.3532
     21 C         143.1591  141.8986  166.3820 C.3     1  UNL1        0.1501
     22 H         143.7525  143.1434  160.9185 H       1  UNL1        0.1466
     23 H         144.2173  144.7063  161.4176 H       1  UNL1        0.1466
     24 C         142.4855  139.0486  160.9089 C.ar    1  UNL1        0.0214
     25 C         143.7214  139.3469  160.1130 C.ar    1  UNL1        0.0990
     26 N         143.7193  139.1570  158.6251 N.ar    1  UNL1       -0.2400
     27 C         142.4813  138.6689  157.9331 C.ar    1  UNL1        0.1284
     28 C         141.2453  138.3706  158.7289 C.ar    1  UNL1        0.1592
     29 F         140.0073  137.8824  158.0369 F       1  UNL1       -0.2025
     30 C         141.2474  138.5604  160.2169 C.ar    1  UNL1        0.0328
@<TRIPOS>BOND
     1     1     2    1
     2     2     3    2
     3     3     4    1
     4     4     5    1
     5     5     6    1
     6     4     7    1
     7     7     8   ar
     8     8     9   ar
     9     9    24    1
    10    24    25   ar
    11    25    26   ar
    12    26    27   ar
    13    27    28   ar
    14    28    29    1
    15    28    30   ar
    16     9    10   ar
    17    10    11   ar
    18    11    12   ar
    19    12    13    1
    20    13    14    1
    21    14    15    1
    22    15    16    1
    23    16    17    1
    24    14    18    1
    25    18    19    1
    26    19    20    1
    27    20    21    1
    28     6     2    1
    29    12     7   ar
    30    17    14    1
    31    21    18    1
    32    18     4    1
    33    30    24   ar
    34     1    22    1
    35     1    23    1
@<TRIPOS>MOLECULE
*****
 30 35 0 0 0
SMALL
GASTEIGER

@<TRIPOS>ATOM
      1 N         144.1907  138.8989  162.1809 N.pl3   1  UNL1       -0.3133
      2 C         143.6881  139.0706  163.5837 C.2     1  UNL1        0.2770
      3 N         142.2713  139.3585  163.9836 N.2     1  UNL1       -0.2202
      4 C         142.2215  139.4504  165.4799 C.3     1  UNL1        0.1580
      5 C         143.6076  139.2193  166.0048 C.3     1  UNL1        0.2351
      6 O         144.5140  138.9846  164.8329 O.2     1  UNL1       -0.4478
      7 C         140.8956  139.6622  164.8112 C.ar    1  UNL1        0.0357
      8 C         140.7911  139.5993  163.3162 C.ar    1  UNL1        0.0007
      9 C         139.4652  139.8111  162.6475 C.ar    1  UNL1        0.0015
     10 C         138.2438  140.0859  163.4739 C.ar    1  UNL1        0.0031
     11 C         138.3484  140.1488  164.9689 C.ar    1  UNL1        0.0366
     12 C         139.6744  139.9369  165.6376 C.ar    1  UNL1        0.1360
     13 O         139.7789  139.9998  167.1326 O.3     1  UNL1       -0.4826
     14 C         141.1048  139.7880  167.8013 C.3     1  UNL1        0.1395
     15 C         140.1388  140.0312  168.9229 C.3     1  UNL1        0.0404
     16 C         141.2527  139.8770  169.9157 C.3     1  UNL1        0.0072
     17 C         142.2187  139.6339  168.7941 C.3     1  UNL1        0.0404
     18 C         142.3261  139.5133  166.9749 C.3     1  UNL1        0.1141
     19 C         141.9562  139.5724  166.7884 C.3     1  UNL1        0.1501
     20 O         142.3450  139.5103  166.9845 O.3     1  UNL1       -0.3532
     21 C         141.9562  139.5724  166.7884 C.3     1  UNL1        0.1501
     22 H         143.5678  138.9738  161.4222 H       1  UNL1        0.1466
     23 H         145.1435  138.7112  162.0189 H       1  UNL1        0.1466
     24 C         139.3606  139.7482  161.1525 C.ar    1  UNL1        0.0214
     25 C         138.0729  140.1121  160.4748 C.ar    1  UNL1        0.0990
     26 N         137.9684  140.0492  158.9798 N.ar    1  UNL1       -0.2400
     27 C         139.1515  139.6224  158.1625 C.ar    1  UNL1        0.1284
     28 C         140.4393  139.2585  158.8402 C.ar    1  UNL1        0.1592
     29 F         141.6224  138.8317  158.0229 F       1  UNL1       -0.2025
     30 C         140.5438  139.3214  160.3352 C.ar    1  UNL1        0.0328
@<TRIPOS>BOND
     1     1     2    1
     2     2     3    2
     3     3     4    1
     4     4     5    1
     5     5     6    1
     6     4     7    1
     7     7     8   ar
     8     8     9   ar
     9     9    24    1
    10    24    25   ar
    11    25    26   ar
    12    26    27   ar
    13    27    28   ar
    14    28    29    1
    15    28    30   ar
    16     9    10   ar
    17    10    11   ar
    18    11    12   ar
    19    12    13    1
    20    13    14    1
    21    14    15    1
    22    15    16    1
    23    16    17    1
    24    14    18    1
    25    18    19    1
    26    19    20    1
    27    20    21    1
    28     6     2    1
    29    12     7   ar
    30    17    14    1
    31    21    18    1
    32    18     4    1
    33    30    24   ar
    34     1    22    1
    35     1    23    1
@<TRIPOS>MOLECULE
*****
 30 35 0 0 0
SMALL
GASTEIGER

@<TRIPOS>ATOM
      1 N         145.1033  142.8515  161.3392 N.pl3   1  UNL1       -0.3133
      2 C         144.5176  142.7127  162.7131 C.2     1  UNL1        0.2770
      3 N         143.0823  142.9379  163.0866 N.2     1  UNL1       -0.2202
      4 C         142.9419  142.6887  164.5590 C.3     1  UNL1        0.1580
      5 C         144.2905  142.3094  165.0955 C.3     1  UNL1        0.2351
      6 O         145.2642  142.3243  163.9547 O.2     1  UNL1       -0.4478
      7 C         141.6621  143.0804  163.8818 C.ar    1  UNL1        0.0357
      8 C         141.6488  143.3614  162.4084 C.ar    1  UNL1        0.0007
      9 C         140.3690  143.7531  161.7312 C.ar    1  UNL1        0.0015
     10 C         139.1025  143.8637  162.5274 C.ar    1  UNL1        0.0031
     11 C         139.1158  143.5826  164.0007 C.ar    1  UNL1        0.0366
     12 C         140.3957  143.1909  164.6779 C.ar    1  UNL1        0.1360
     13 O         140.4091  142.9099  166.1513 O.3     1  UNL1       -0.4826
     14 C         141.6889  142.5182  166.8285 C.3     1  UNL1        0.1395
     15 C         140.6588  142.5245  167.9189 C.3     1  UNL1        0.0404
     16 C         141.7078  142.1207  168.9123 C.3     1  UNL1        0.0072
     17 C         142.7379  142.1144  167.8218 C.3     1  UNL1        0.0404
     18 C         142.9553  142.4076  166.0324 C.3     1  UNL1        0.1141
     19 C         142.5983  142.5169  165.8435 C.3     1  UNL1        0.1501
     20 O         142.9735  142.4020  166.0420 O.3     1  UNL1       -0.3532
     21 C         142.5983  142.5169  165.8435 C.3     1  UNL1        0.1501
     22 H         144.5291  143.1126  160.5833 H       1  UNL1        0.1466
     23 H         146.0620  142.6815  161.1933 H       1  UNL1        0.1466
     24 C         140.3556  144.0342  160.2578 C.ar    1  UNL1        0.0214
     25 C         139.4293  143.2720  159.3573 C.ar    1  UNL1        0.0990
     26 N         139.4159  143.5531  157.8839 N.ar    1  UNL1       -0.2400
     27 C         140.3289  144.5963  157.3111 C.ar    1  UNL1        0.1284
     28 C         141.2553  145.3585  158.2117 C.ar    1  UNL1        0.1592
     29 F         142.1682  146.4018  157.6388 F       1  UNL1       -0.2025
     30 C         141.2686  145.0775  159.6850 C.ar    1  UNL1        0.0328
@<TRIPOS>BOND
     1     1     2    1
     2     2     3    2
     3     3     4    1
     4     4     5    1
     5     5     6    1
     6     4     7    1
     7     7     8   ar
     8     8     9   ar
     9     9    24    1
    10    24    25   ar
    11    25    26   ar
    12    26    27   ar
    13    27    28   ar
    14    28    29    1
    15    28    30   ar
    16     9    10   ar
    17    10    11   ar
    18    11    12   ar
    19    12    13    1
    20    13    14    1
    21    14    15    1
    22    15    16    1
    23    16    17    1
    24    14    18    1
    25    18    19    1
    26    19    20    1
    27    20    21    1
    28     6     2    1
    29    12     7   ar
    30    17    14    1
    31    21    18    1
    32    18     4    1
    33    30    24   ar
    34     1    22    1
    35     1    23    1
