@<TRIPOS>MOLECULE
*****
 23 23 0 0 0
SMALL
GASTEIGER

@<TRIPOS>ATOM
      1 C         140.9435  140.7875  168.3392 C.ar    1  UNL1        0.1827
      2 N         140.3330  142.0962  168.7446 N.ar    1  UNL1       -0.2222
      3 C         141.0962  143.0384  169.6277 C.ar    1  UNL1        0.1695
      4 CL        140.4856  144.3472  170.0331 Cl      1  UNL1       -0.0584
      5 C         142.4700  142.6718  170.1054 C.ar    1  UNL1        0.1555
      6 N         143.2333  143.6139  170.9884 N.pl3   1  UNL1       -0.3407
      7 N         143.0806  141.3630  169.6999 N.ar    1  UNL1       -0.2127
      8 C         142.3173  140.4209  168.8169 C.ar    1  UNL1        0.1507
      9 N         142.9279  139.1121  168.4114 N.pl3   1  UNL1       -0.3412
     10 H         142.8325  144.4729  171.2545 H       1  UNL1        0.1438
     11 H         144.1350  143.3733  171.3019 H       1  UNL1        0.1438
     12 H         143.8296  138.8715  168.7249 H       1  UNL1        0.1438
     13 H         142.4270  138.4938  167.8318 H       1  UNL1        0.1438
     14 N         138.7561  139.5025  167.7789 N.am    1  UNL1       -0.1695
     15 C         140.1802  139.8454  167.4561 C.2     1  UNL1        0.3283
     16 O         140.8411  139.2461  166.2503 O.2     1  UNL1       -0.2498
     17 H         138.3223  139.8959  168.5703 H       1  UNL1        0.2546
     18 N         136.9558  137.6522  167.4871 N.pl3   1  UNL1       -0.1313
     19 C         137.9928  138.5604  166.8958 C.2     1  UNL1        0.3751
     20 N         138.2666  138.5265  165.4213 N.pl3   1  UNL1       -0.2906
     21 H         136.4549  137.0338  166.9075 H       1  UNL1        0.3060
     22 H         137.7657  137.9082  164.8417 H       1  UNL1        0.2545
     23 H         138.9472  139.1227  165.0332 H       1  UNL1        0.2545
@<TRIPOS>BOND
     1    18    19    2
     2    19    20    1
     3    19    14    1
     4    14    15   am
     5    15    16    2
     6    15     1    1
     7     1     2   ar
     8     2     3   ar
     9     3     4    1
    10     3     5   ar
    11     5     6    1
    12     5     7   ar
    13     7     8   ar
    14     8     9    1
    15     8     1   ar
    16    18    21    1
    17    20    22    1
    18    20    23    1
    19    14    17    1
    20     6    10    1
    21     6    11    1
    22     9    12    1
    23     9    13    1
@<TRIPOS>MOLECULE
*****
 23 23 0 0 0
SMALL
GASTEIGER

@<TRIPOS>ATOM
      1 C         139.9614  140.5680  168.5532 C.ar    1  UNL1        0.1827
      2 N         141.2990  141.1723  168.2443 N.ar    1  UNL1       -0.2222
      3 C         142.1060  141.8067  169.3381 C.ar    1  UNL1        0.1695
      4 CL        143.4437  142.4110  169.0292 Cl      1  UNL1       -0.0584
      5 C         141.5753  141.8367  170.7408 C.ar    1  UNL1        0.1555
      6 N         142.3823  142.4710  171.8346 N.pl3   1  UNL1       -0.3407
      7 N         140.2377  141.2323  171.0496 N.ar    1  UNL1       -0.2127
      8 C         139.4307  140.5980  169.9558 C.ar    1  UNL1        0.1507
      9 N         138.0930  139.9936  170.2647 N.pl3   1  UNL1       -0.3412
     10 H         143.2602  142.8677  171.6319 H       1  UNL1        0.1438
     11 H         142.0340  142.4907  172.7552 H       1  UNL1        0.1438
     12 H         137.7447  140.0133  171.1853 H       1  UNL1        0.1438
     13 H         137.5633  139.5773  169.5468 H       1  UNL1        0.1438
     14 N         139.2621  140.4465  166.0539 N.am    1  UNL1       -0.1695
     15 C         139.1544  139.9336  167.4594 C.2     1  UNL1        0.3283
     16 O         138.2398  138.7863  167.7710 O.2     1  UNL1       -0.2498
     17 H         139.8624  141.1995  165.8494 H       1  UNL1        0.2546
     18 N         138.5736  138.3401  164.6980 N.pl3   1  UNL1       -0.1313
     19 C         138.4551  139.8122  164.9601 C.2     1  UNL1        0.3751
     20 N         137.5296  140.6500  164.1285 N.pl3   1  UNL1       -0.2906
     21 H         138.0439  137.9237  163.9801 H       1  UNL1        0.3060
     22 H         137.0000  140.2337  163.4106 H       1  UNL1        0.2545
     23 H         137.4518  141.6163  164.3006 H       1  UNL1        0.2545
@<TRIPOS>BOND
     1    18    19    2
     2    19    20    1
     3    19    14    1
     4    14    15   am
     5    15    16    2
     6    15     1    1
     7     1     2   ar
     8     2     3   ar
     9     3     4    1
    10     3     5   ar
    11     5     6    1
    12     5     7   ar
    13     7     8   ar
    14     8     9    1
    15     8     1   ar
    16    18    21    1
    17    20    22    1
    18    20    23    1
    19    14    17    1
    20     6    10    1
    21     6    11    1
    22     9    12    1
    23     9    13    1
@<TRIPOS>MOLECULE
*****
 23 23 0 0 0
SMALL
GASTEIGER

@<TRIPOS>ATOM
      1 C         141.8381  142.9108  163.3062 C.ar    1  UNL1        0.1827
      2 N         142.2964  141.6641  164.0030 N.ar    1  UNL1       -0.2222
      3 C         143.7557  141.3193  164.0408 C.ar    1  UNL1        0.1695
      4 CL        144.2140  140.0724  164.7377 Cl      1  UNL1       -0.0584
      5 C         144.7568  142.2212  163.3818 C.ar    1  UNL1        0.1555
      6 N         146.2161  141.8764  163.4196 N.pl3   1  UNL1       -0.3407
      7 N         144.2985  143.4679  162.6850 N.ar    1  UNL1       -0.2127
      8 C         142.8392  143.8127  162.6472 C.ar    1  UNL1        0.1507
      9 N         142.3809  145.0595  161.9503 N.pl3   1  UNL1       -0.3412
     10 H         146.5169  141.0581  163.8770 H       1  UNL1        0.1438
     11 H         146.8732  142.4684  162.9871 H       1  UNL1        0.1438
     12 H         143.0380  145.6515  161.5178 H       1  UNL1        0.1438
     13 H         141.4231  145.2858  161.9255 H       1  UNL1        0.1438
     14 N         139.3775  142.2316  162.8225 N.am    1  UNL1       -0.1695
     15 C         140.3788  143.2556  163.2684 C.2     1  UNL1        0.3283
     16 O         139.9207  144.6243  163.6765 O.2     1  UNL1       -0.2498
     17 H         139.6781  141.3332  162.5546 H       1  UNL1        0.2546
     18 N         136.8911  141.5253  163.0853 N.pl3   1  UNL1       -0.1313
     19 C         137.9182  142.5764  162.7847 C.2     1  UNL1        0.3751
     20 N         137.4859  143.9724  162.4463 N.pl3   1  UNL1       -0.2906
     21 H         135.9333  141.7516  163.0605 H       1  UNL1        0.3060
     22 H         136.5280  144.1987  162.4214 H       1  UNL1        0.2545
     23 H         138.1599  144.6622  162.2490 H       1  UNL1        0.2545
@<TRIPOS>BOND
     1    18    19    2
     2    19    20    1
     3    19    14    1
     4    14    15   am
     5    15    16    2
     6    15     1    1
     7     1     2   ar
     8     2     3   ar
     9     3     4    1
    10     3     5   ar
    11     5     6    1
    12     5     7   ar
    13     7     8   ar
    14     8     9    1
    15     8     1   ar
    16    18    21    1
    17    20    22    1
    18    20    23    1
    19    14    17    1
    20     6    10    1
    21     6    11    1
    22     9    12    1
    23     9    13    1
@<TRIPOS>MOLECULE
*****
 23 23 0 0 0
SMALL
GASTEIGER

@<TRIPOS>ATOM
      1 C         141.7670  143.1314  163.4407 C.ar    1  UNL1        0.1827
      2 N         140.6039  142.3721  164.0068 N.ar    1  UNL1       -0.2222
      3 C         139.2029  142.8351  163.7366 C.ar    1  UNL1        0.1695
      4 CL        138.0398  142.0757  164.3028 Cl      1  UNL1       -0.0584
      5 C         138.9651  144.0573  162.9002 C.ar    1  UNL1        0.1555
      6 N         137.5642  144.5202  162.6299 N.pl3   1  UNL1       -0.3407
      7 N         140.1283  144.8165  162.3340 N.ar    1  UNL1       -0.2127
      8 C         141.5292  144.3536  162.6043 C.ar    1  UNL1        0.1507
      9 N         142.6924  145.1129  162.0381 N.pl3   1  UNL1       -0.3412
     10 H         136.8008  144.0219  163.0015 H       1  UNL1        0.1438
     11 H         137.4081  145.3224  162.0810 H       1  UNL1        0.1438
     12 H         142.5363  145.9151  161.4891 H       1  UNL1        0.1438
     13 H         143.6119  144.8091  162.2154 H       1  UNL1        0.1438
     14 N         143.6270  141.3326  163.2061 N.am    1  UNL1       -0.1695
     15 C         143.1680  142.6684  163.7109 C.2     1  UNL1        0.3283
     16 O         144.1099  143.5413  164.4860 O.2     1  UNL1       -0.2498
     17 H         143.0087  140.7597  162.6973 H       1  UNL1        0.2546
     18 N         146.1859  141.7818  163.1987 N.pl3   1  UNL1       -0.1313
     19 C         145.0279  140.8697  163.4763 C.2     1  UNL1        0.3751
     20 N         145.2708  139.4946  164.0242 N.pl3   1  UNL1       -0.2906
     21 H         147.1054  141.4779  163.3761 H       1  UNL1        0.3060
     22 H         146.1903  139.1907  164.2016 H       1  UNL1        0.2545
     23 H         144.5108  138.8959  164.2065 H       1  UNL1        0.2545
@<TRIPOS>BOND
     1    18    19    2
     2    19    20    1
     3    19    14    1
     4    14    15   am
     5    15    16    2
     6    15     1    1
     7     1     2   ar
     8     2     3   ar
     9     3     4    1
    10     3     5   ar
    11     5     6    1
    12     5     7   ar
    13     7     8   ar
    14     8     9    1
    15     8     1   ar
    16    18    21    1
    17    20    22    1
    18    20    23    1
    19    14    17    1
    20     6    10    1
    21     6    11    1
    22     9    12    1
    23     9    13    1
@<TRIPOS>MOLECULE
*****
 23 23 0 0 0
SMALL
GASTEIGER

@<TRIPOS>ATOM
      1 C         139.5692  140.2936  167.3810 C.ar    1  UNL1        0.1827
      2 N         140.2818  141.2534  166.4750 N.ar    1  UNL1       -0.2222
      3 C         139.8769  141.3669  165.0352 C.ar    1  UNL1        0.1695
      4 CL        140.5896  142.3268  164.1291 Cl      1  UNL1       -0.0584
      5 C         138.7595  140.5206  164.5013 C.ar    1  UNL1        0.1555
      6 N         138.3546  140.6342  163.0615 N.pl3   1  UNL1       -0.3407
      7 N         138.0469  139.5608  165.4073 N.ar    1  UNL1       -0.2127
      8 C         138.4517  139.4473  166.8472 C.ar    1  UNL1        0.1507
      9 N         137.7390  138.4874  167.7532 N.pl3   1  UNL1       -0.3412
     10 H         138.8223  141.2641  162.4668 H       1  UNL1        0.1438
     11 H         137.6212  140.0787  162.7111 H       1  UNL1        0.1438
     12 H         137.0056  137.9320  167.4028 H       1  UNL1        0.1438
     13 H         138.0047  138.4129  168.6983 H       1  UNL1        0.1438
     14 N         141.4075  140.3799  169.2149 N.am    1  UNL1       -0.1695
     15 C         139.9740  140.1800  168.8209 C.2     1  UNL1        0.3283
     16 O         138.9455  139.8666  169.8667 O.2     1  UNL1       -0.2498
     17 H         142.0826  140.5856  168.5285 H       1  UNL1        0.2546
     18 N         140.8622  140.6873  171.7365 N.pl3   1  UNL1       -0.1313
     19 C         141.8123  140.2664  170.6548 C.2     1  UNL1        0.3751
     20 N         143.1674  139.7319  171.0130 N.pl3   1  UNL1       -0.2906
     21 H         141.1279  140.6128  172.6815 H       1  UNL1        0.3060
     22 H         143.4331  139.6574  171.9580 H       1  UNL1        0.2545
     23 H         143.7910  139.4556  170.3030 H       1  UNL1        0.2545
@<TRIPOS>BOND
     1    18    19    2
     2    19    20    1
     3    19    14    1
     4    14    15   am
     5    15    16    2
     6    15     1    1
     7     1     2   ar
     8     2     3   ar
     9     3     4    1
    10     3     5   ar
    11     5     6    1
    12     5     7   ar
    13     7     8   ar
    14     8     9    1
    15     8     1   ar
    16    18    21    1
    17    20    22    1
    18    20    23    1
    19    14    17    1
    20     6    10    1
    21     6    11    1
    22     9    12    1
    23     9    13    1
@<TRIPOS>MOLECULE
*****
 23 23 0 0 0
SMALL
GASTEIGER

@<TRIPOS>ATOM
      1 C         141.4206  139.2246  166.6071 C.ar    1  UNL1        0.1827
      2 N         140.2535  139.7650  167.3791 N.ar    1  UNL1       -0.2222
      3 C         140.4035  140.0897  168.8358 C.ar    1  UNL1        0.1695
      4 CL        139.2364  140.6301  169.6078 Cl      1  UNL1       -0.0584
      5 C         141.7205  139.8740  169.5206 C.ar    1  UNL1        0.1555
      6 N         141.8705  140.1987  170.9773 N.pl3   1  UNL1       -0.3407
      7 N         142.8875  139.3336  168.7486 N.ar    1  UNL1       -0.2127
      8 C         142.7376  139.0089  167.2919 C.ar    1  UNL1        0.1507
      9 N         143.9047  138.4685  166.5199 N.pl3   1  UNL1       -0.3412
     10 H         141.1045  140.5534  171.4840 H       1  UNL1        0.1438
     11 H         142.7349  140.0571  171.4268 H       1  UNL1        0.1438
     12 H         144.7691  138.3269  166.9694 H       1  UNL1        0.1438
     13 H         143.8063  138.2554  165.5638 H       1  UNL1        0.1438
     14 N         140.3048  137.8383  164.7142 N.am    1  UNL1       -0.1695
     15 C         141.2706  138.8999  165.1504 C.2     1  UNL1        0.3283
     16 O         142.0864  139.6367  164.1299 O.2     1  UNL1       -0.2498
     17 H         139.7694  137.3547  165.3840 H       1  UNL1        0.2546
     18 N         141.3574  137.1311  162.4466 N.pl3   1  UNL1       -0.1313
     19 C         140.1549  137.5136  163.2574 C.2     1  UNL1        0.3751
     20 N         138.8022  137.5715  162.6115 N.pl3   1  UNL1       -0.2906
     21 H         141.2590  136.9179  161.4905 H       1  UNL1        0.3060
     22 H         138.7038  137.3583  161.6554 H       1  UNL1        0.2545
     23 H         138.0129  137.8225  163.1437 H       1  UNL1        0.2545
@<TRIPOS>BOND
     1    18    19    2
     2    19    20    1
     3    19    14    1
     4    14    15   am
     5    15    16    2
     6    15     1    1
     7     1     2   ar
     8     2     3   ar
     9     3     4    1
    10     3     5   ar
    11     5     6    1
    12     5     7   ar
    13     7     8   ar
    14     8     9    1
    15     8     1   ar
    16    18    21    1
    17    20    22    1
    18    20    23    1
    19    14    17    1
    20     6    10    1
    21     6    11    1
    22     9    12    1
    23     9    13    1
@<TRIPOS>MOLECULE
*****
 23 23 0 0 0
SMALL
GASTEIGER

@<TRIPOS>ATOM
      1 C         138.4323  142.0544  162.1508 C.ar    1  UNL1        0.1827
      2 N         138.8020  141.3714  160.8675 N.ar    1  UNL1       -0.2222
      3 C         138.6508  139.8847  160.7386 C.ar    1  UNL1        0.1695
      4 CL        139.0206  139.2017  159.4553 Cl      1  UNL1       -0.0584
      5 C         138.1299  139.0809  161.8929 C.ar    1  UNL1        0.1555
      6 N         137.9787  137.5941  161.7640 N.pl3   1  UNL1       -0.3407
      7 N         137.7602  139.7639  163.1762 N.ar    1  UNL1       -0.2127
      8 C         137.9113  141.2506  163.3051 C.ar    1  UNL1        0.1507
      9 N         137.5416  141.9336  164.5884 N.pl3   1  UNL1       -0.3412
     10 H         138.2214  137.1458  160.9218 H       1  UNL1        0.1438
     11 H         137.6368  137.0665  162.5217 H       1  UNL1        0.1438
     12 H         137.1997  141.4061  165.3461 H       1  UNL1        0.1438
     13 H         137.6408  142.9095  164.6731 H       1  UNL1        0.1438
     14 N         139.8839  144.1968  161.9206 N.am    1  UNL1       -0.1695
     15 C         138.5834  143.5412  162.2797 C.2     1  UNL1        0.3283
     16 O         137.4342  144.3724  162.7677 O.2     1  UNL1       -0.2498
     17 H         140.6382  143.6512  161.6002 H       1  UNL1        0.2546
     18 N         141.0673  146.2550  162.9757 N.pl3   1  UNL1       -0.1313
     19 C         140.0351  145.6836  162.0495 C.2     1  UNL1        0.3751
     20 N         139.1540  146.5990  161.2521 N.pl3   1  UNL1       -0.2906
     21 H         141.1665  147.2308  163.0603 H       1  UNL1        0.3060
     22 H         139.2532  147.5748  161.3367 H       1  UNL1        0.2545
     23 H         138.4765  146.2239  160.6442 H       1  UNL1        0.2545
@<TRIPOS>BOND
     1    18    19    2
     2    19    20    1
     3    19    14    1
     4    14    15   am
     5    15    16    2
     6    15     1    1
     7     1     2   ar
     8     2     3   ar
     9     3     4    1
    10     3     5   ar
    11     5     6    1
    12     5     7   ar
    13     7     8   ar
    14     8     9    1
    15     8     1   ar
    16    18    21    1
    17    20    22    1
    18    20    23    1
    19    14    17    1
    20     6    10    1
    21     6    11    1
    22     9    12    1
    23     9    13    1
@<TRIPOS>MOLECULE
*****
 23 23 0 0 0
SMALL
GASTEIGER

@<TRIPOS>ATOM
      1 C         139.2608  140.8498  166.3197 C.ar    1  UNL1        0.1827
      2 N         140.1095  141.9126  166.9522 N.ar    1  UNL1       -0.2222
      3 C         140.4974  141.8014  168.3969 C.ar    1  UNL1        0.1695
      4 CL        141.3462  142.8642  169.0295 Cl      1  UNL1       -0.0584
      5 C         140.0367  140.6274  169.2090 C.ar    1  UNL1        0.1555
      6 N         140.4247  140.5162  170.6537 N.pl3   1  UNL1       -0.3407
      7 N         139.1880  139.5647  168.5764 N.ar    1  UNL1       -0.2127
      8 C         138.8000  139.6759  167.1317 C.ar    1  UNL1        0.1507
      9 N         137.9512  138.6131  166.4991 N.pl3   1  UNL1       -0.3412
     10 H         140.9817  141.2138  171.0689 H       1  UNL1        0.1438
     11 H         140.1222  139.7457  171.1867 H       1  UNL1        0.1438
     12 H         137.6488  137.8426  167.0322 H       1  UNL1        0.1438
     13 H         137.6966  138.6860  165.5510 H       1  UNL1        0.1438
     14 N         137.8884  142.0063  164.4411 N.am    1  UNL1       -0.1695
     15 C         138.8728  140.9610  164.8750 C.2     1  UNL1        0.3283
     16 O         139.4692  140.0270  163.8642 O.2     1  UNL1       -0.2498
     17 H         137.4969  142.6194  165.1045 H       1  UNL1        0.2546
     18 N         137.0180  140.9067  162.2540 N.pl3   1  UNL1       -0.1313
     19 C         137.5004  142.1175  162.9964 C.2     1  UNL1        0.3751
     20 N         137.5948  143.4396  162.2941 N.pl3   1  UNL1       -0.2906
     21 H         136.7634  140.9797  161.3058 H       1  UNL1        0.3060
     22 H         137.3402  143.5126  161.3459 H       1  UNL1        0.2545
     23 H         137.9114  144.2343  162.7813 H       1  UNL1        0.2545
@<TRIPOS>BOND
     1    18    19    2
     2    19    20    1
     3    19    14    1
     4    14    15   am
     5    15    16    2
     6    15     1    1
     7     1     2   ar
     8     2     3   ar
     9     3     4    1
    10     3     5   ar
    11     5     6    1
    12     5     7   ar
    13     7     8   ar
    14     8     9    1
    15     8     1   ar
    16    18    21    1
    17    20    22    1
    18    20    23    1
    19    14    17    1
    20     6    10    1
    21     6    11    1
    22     9    12    1
    23     9    13    1
@<TRIPOS>MOLECULE
*****
 23 23 0 0 0
SMALL
GASTEIGER

@<TRIPOS>ATOM
      1 C         141.5224  139.6149  167.4448 C.ar    1  UNL1        0.1827
      2 N         140.1070  139.9579  167.0860 N.ar    1  UNL1       -0.2222
      3 C         139.5613  139.5791  165.7411 C.ar    1  UNL1        0.1695
      4 CL        138.1458  139.9222  165.3822 Cl      1  UNL1       -0.0584
      5 C         140.4311  138.8572  164.7550 C.ar    1  UNL1        0.1555
      6 N         139.8855  138.4784  163.4101 N.pl3   1  UNL1       -0.3407
      7 N         141.8466  138.5142  165.1139 N.ar    1  UNL1       -0.2127
      8 C         142.3922  138.8930  166.4588 C.ar    1  UNL1        0.1507
      9 N         143.8077  138.5499  166.8176 N.pl3   1  UNL1       -0.3412
     10 H         138.9565  138.7036  163.1746 H       1  UNL1        0.1438
     11 H         140.4564  138.0046  162.7629 H       1  UNL1        0.1438
     12 H         144.3786  138.0761  166.1704 H       1  UNL1        0.1438
     13 H         144.1659  138.7985  167.7003 H       1  UNL1        0.1438
     14 N         141.6948  141.3087  169.4073 N.am    1  UNL1       -0.1695
     15 C         142.0681  139.9937  168.7897 C.2     1  UNL1        0.3283
     16 O         142.9870  139.0575  169.5171 O.2     1  UNL1       -0.2498
     17 H         141.0917  141.9232  168.9299 H       1  UNL1        0.2546
     18 N         142.2016  140.7018  171.8821 N.pl3   1  UNL1       -0.1313
     19 C         142.2404  141.6875  170.7522 C.2     1  UNL1        0.3751
     20 N         142.8250  143.0522  170.9671 N.pl3   1  UNL1       -0.2906
     21 H         142.5597  140.9504  172.7648 H       1  UNL1        0.3060
     22 H         143.1831  143.3008  171.8498 H       1  UNL1        0.2545
     23 H         142.8505  143.6991  170.2255 H       1  UNL1        0.2545
@<TRIPOS>BOND
     1    18    19    2
     2    19    20    1
     3    19    14    1
     4    14    15   am
     5    15    16    2
     6    15     1    1
     7     1     2   ar
     8     2     3   ar
     9     3     4    1
    10     3     5   ar
    11     5     6    1
    12     5     7   ar
    13     7     8   ar
    14     8     9    1
    15     8     1   ar
    16    18    21    1
    17    20    22    1
    18    20    23    1
    19    14    17    1
    20     6    10    1
    21     6    11    1
    22     9    12    1
    23     9    13    1
