@<TRIPOS>MOLECULE
*****
 33 37 0 0 0
SMALL
GASTEIGER

@<TRIPOS>ATOM
      1 C         140.3604  141.3323  165.5728 C.ar    1  UNL1        0.0908
      2 C         140.6254  141.9889  166.8952 C.ar    1  UNL1        0.1496
      3 O         139.9537  143.3301  166.8895 O.2     1  UNL1       -0.4534
      4 C         139.2736  143.5023  165.5637 C.ar    1  UNL1        0.1454
      5 C         138.4579  144.6240  164.9923 C.ar    1  UNL1        0.0406
      6 C         137.8935  144.5108  163.6071 C.ar    1  UNL1        0.0395
      7 C         138.1449  143.2761  162.7934 C.ar    1  UNL1        0.1311
      8 O         137.5805  143.1630  161.4082 O.3     1  UNL1       -0.5058
      9 C         138.9606  142.1545  163.3648 C.ar    1  UNL1        0.0308
     10 C         139.5249  142.2676  164.7499 C.ar    1  UNL1        0.0421
     11 H         137.0710  143.8637  161.0512 H       1  UNL1        0.2922
     12 C         141.4222  141.4066  168.0248 C.ar    1  UNL1        0.0349
     13 C         142.6109  142.1461  168.5634 C.ar    1  UNL1        0.0061
     14 C         143.4077  141.5638  169.6930 C.ar    1  UNL1        0.0367
     15 C         143.0158  140.2421  170.2841 C.ar    1  UNL1        0.1337
     16 O         143.8125  139.6598  171.4137 O.3     1  UNL1       -0.5055
     17 C         141.8271  139.5026  169.7455 C.ar    1  UNL1        0.0367
     18 C         141.0303  140.0849  168.6158 C.ar    1  UNL1        0.0061
     19 H         144.5551  140.1218  171.7502 H       1  UNL1        0.2922
     20 C         140.4203  137.4360  164.8209 C.3     1  UNL1        0.1152
     21 N         139.9350  138.7902  165.2458 N.am    1  UNL1       -0.2725
     22 C         138.5388  138.9566  165.7685 C.3     1  UNL1        0.1152
     23 C         140.8457  139.9780  165.1479 C.2     1  UNL1        0.2522
     24 O         142.2418  139.8116  164.6252 O.2     1  UNL1       -0.2698
     25 C         139.2120  140.9197  162.5510 C.3     1  UNL1        0.1023
     26 N         140.5118  140.7543  161.8210 N.3     1  UNL1       -0.2687
     27 C         141.5101  141.8385  161.5413 C.3     1  UNL1        0.0726
     28 C         142.6570  141.2300  160.7899 C.3     1  UNL1        0.0235
     29 C         142.3675  139.7698  160.6052 C.3     1  UNL1        0.0707
     30 C         142.2848  138.3018  160.3086 C.3     1  UNL1        0.1458
     31 O         143.6141  138.3668  159.6164 O.3     1  UNL1       -0.3535
     32 C         143.6966  139.8349  159.9131 C.3     1  UNL1        0.1458
     33 C         141.0417  139.4758  161.2424 C.3     1  UNL1        0.0772
@<TRIPOS>BOND
     1    20    21    1
     2    21    22    1
     3    21    23   am
     4    23    24    2
     5    23     1    1
     6     1     2   ar
     7     2    12    1
     8    12    13   ar
     9    13    14   ar
    10    14    15   ar
    11    15    16    1
    12    15    17   ar
    13    17    18   ar
    14     2     3   ar
    15     3     4   ar
    16     4     5   ar
    17     5     6   ar
    18     6     7   ar
    19     7     8    1
    20     7     9   ar
    21     9    25    1
    22    25    26    1
    23    26    27    1
    24    27    28    1
    25    28    29    1
    26    29    30    1
    27    30    31    1
    28    31    32    1
    29    29    33    1
    30     9    10   ar
    31    10     1   ar
    32    18    12   ar
    33    10     4   ar
    34    33    26    1
    35    32    29    1
    36    16    19    1
    37     8    11    1
@<TRIPOS>MOLECULE
*****
 33 37 0 0 0
SMALL
GASTEIGER

@<TRIPOS>ATOM
      1 C         140.4044  141.3682  165.5462 C.ar    1  UNL1        0.0908
      2 C         140.6242  142.0083  166.8849 C.ar    1  UNL1        0.1496
      3 O         139.9008  143.3223  166.8947 O.2     1  UNL1       -0.4534
      4 C         139.2340  143.4944  165.5621 C.ar    1  UNL1        0.1454
      5 C         138.3837  144.5947  164.9999 C.ar    1  UNL1        0.0406
      6 C         137.8446  144.4874  163.6043 C.ar    1  UNL1        0.0395
      7 C         138.1558  143.2797  162.7709 C.ar    1  UNL1        0.1311
      8 O         137.6166  143.1723  161.3752 O.3     1  UNL1       -0.5058
      9 C         139.0061  142.1793  163.3331 C.ar    1  UNL1        0.0308
     10 C         139.5453  142.2867  164.7287 C.ar    1  UNL1        0.0421
     11 H         137.0854  143.8597  161.0240 H       1  UNL1        0.2922
     12 C         141.4264  141.4350  168.0153 C.ar    1  UNL1        0.0349
     13 C         141.0437  140.1129  168.6116 C.ar    1  UNL1        0.0061
     14 C         141.8459  139.5396  169.7420 C.ar    1  UNL1        0.0367
     15 C         143.0309  140.2884  170.2760 C.ar    1  UNL1        0.1337
     16 O         143.8331  139.7150  171.4064 O.3     1  UNL1       -0.5055
     17 C         143.4136  141.6104  169.6797 C.ar    1  UNL1        0.0367
     18 C         142.6114  142.1837  168.5493 C.ar    1  UNL1        0.0061
     19 H         143.5940  138.8892  171.7789 H       1  UNL1        0.2922
     20 C         140.6348  137.4888  164.7421 C.3     1  UNL1        0.1152
     21 N         140.0909  138.8145  165.1854 N.am    1  UNL1       -0.2725
     22 C         138.6894  138.9122  165.7113 C.3     1  UNL1        0.1152
     23 C         140.9483  140.0425  165.1029 C.2     1  UNL1        0.2522
     24 O         142.3497  139.9447  164.5770 O.2     1  UNL1       -0.2698
     25 C         139.3174  140.9716  162.4997 C.3     1  UNL1        0.1023
     26 N         140.6155  140.8901  161.7527 N.3     1  UNL1       -0.2687
     27 C         141.2161  139.6492  161.1613 C.3     1  UNL1        0.0726
     28 C         142.5129  140.0273  160.5090 C.3     1  UNL1        0.0235
     29 C         142.7138  141.5019  160.6973 C.3     1  UNL1        0.0707
     30 C         143.1153  142.9455  160.7664 C.3     1  UNL1        0.1458
     31 O         144.3661  142.6343  159.9991 O.3     1  UNL1       -0.3535
     32 C         143.9645  141.1907  159.9301 C.3     1  UNL1        0.1458
     33 C         141.5412  142.0351  161.4659 C.3     1  UNL1        0.0772
@<TRIPOS>BOND
     1    20    21    1
     2    21    22    1
     3    21    23   am
     4    23    24    2
     5    23     1    1
     6     1     2   ar
     7     2    12    1
     8    12    13   ar
     9    13    14   ar
    10    14    15   ar
    11    15    16    1
    12    15    17   ar
    13    17    18   ar
    14     2     3   ar
    15     3     4   ar
    16     4     5   ar
    17     5     6   ar
    18     6     7   ar
    19     7     8    1
    20     7     9   ar
    21     9    25    1
    22    25    26    1
    23    26    27    1
    24    27    28    1
    25    28    29    1
    26    29    30    1
    27    30    31    1
    28    31    32    1
    29    29    33    1
    30     9    10   ar
    31    10     1   ar
    32    18    12   ar
    33    10     4   ar
    34    33    26    1
    35    32    29    1
    36    16    19    1
    37     8    11    1
@<TRIPOS>MOLECULE
*****
 33 37 0 0 0
SMALL
GASTEIGER

@<TRIPOS>ATOM
      1 C         140.1913  141.5103  165.4340 C.ar    1  UNL1        0.0908
      2 C         140.6992  140.9160  166.7142 C.ar    1  UNL1        0.1496
      3 O         140.4611  139.4359  166.6647 O.2     1  UNL1       -0.4534
      4 C         139.8061  139.1153  165.3539 C.ar    1  UNL1        0.1454
      5 C         139.3399  137.8217  164.7546 C.ar    1  UNL1        0.0406
      6 C         138.7070  137.8101  163.3948 C.ar    1  UNL1        0.0395
      7 C         138.5402  139.0922  162.6342 C.ar    1  UNL1        0.1311
      8 O         137.9072  139.0806  161.2743 O.3     1  UNL1       -0.5058
      9 C         139.0064  140.3858  163.2334 C.ar    1  UNL1        0.0308
     10 C         139.6393  140.3974  164.5933 C.ar    1  UNL1        0.0421
     11 H         137.6160  138.2725  160.8999 H       1  UNL1        0.2922
     12 C         141.3338  141.6696  167.8453 C.ar    1  UNL1        0.0349
     13 C         140.5059  142.5925  168.6895 C.ar    1  UNL1        0.0061
     14 C         141.1405  143.3461  169.8206 C.ar    1  UNL1        0.0367
     15 C         142.6030  143.1768  170.1076 C.ar    1  UNL1        0.1337
     16 O         143.2376  143.9304  171.2387 O.3     1  UNL1       -0.5055
     17 C         143.4309  142.2539  169.2633 C.ar    1  UNL1        0.0367
     18 C         142.7963  141.5003  168.1322 C.ar    1  UNL1        0.0061
     19 H         142.7204  144.5069  171.7660 H       1  UNL1        0.2922
     20 C         141.4654  144.9772  163.9824 C.3     1  UNL1        0.1152
     21 N         141.4279  143.5250  164.3562 N.am    1  UNL1       -0.2725
     22 C         142.5897  142.6354  164.0261 C.3     1  UNL1        0.1152
     23 C         140.2288  142.9624  165.0602 C.2     1  UNL1        0.2522
     24 O         139.0671  143.8522  165.3903 O.2     1  UNL1       -0.2698
     25 C         138.8396  141.6679  162.4728 C.3     1  UNL1        0.1023
     26 N         139.9153  142.1286  161.5345 N.3     1  UNL1       -0.2687
     27 C         141.0261  141.2841  160.9837 C.3     1  UNL1        0.0726
     28 C         141.8665  142.1483  160.0910 C.3     1  UNL1        0.0235
     29 C         141.2751  143.5269  160.0899 C.3     1  UNL1        0.0707
     30 C         140.8593  144.9604  159.9421 C.3     1  UNL1        0.1458
     31 O         142.0144  145.1999  159.0154 O.3     1  UNL1       -0.3535
     32 C         142.4301  143.7662  159.1633 C.3     1  UNL1        0.1458
     33 C         140.0693  143.5147  160.9821 C.3     1  UNL1        0.0772
@<TRIPOS>BOND
     1    20    21    1
     2    21    22    1
     3    21    23   am
     4    23    24    2
     5    23     1    1
     6     1     2   ar
     7     2    12    1
     8    12    13   ar
     9    13    14   ar
    10    14    15   ar
    11    15    16    1
    12    15    17   ar
    13    17    18   ar
    14     2     3   ar
    15     3     4   ar
    16     4     5   ar
    17     5     6   ar
    18     6     7   ar
    19     7     8    1
    20     7     9   ar
    21     9    25    1
    22    25    26    1
    23    26    27    1
    24    27    28    1
    25    28    29    1
    26    29    30    1
    27    30    31    1
    28    31    32    1
    29    29    33    1
    30     9    10   ar
    31    10     1   ar
    32    18    12   ar
    33    10     4   ar
    34    33    26    1
    35    32    29    1
    36    16    19    1
    37     8    11    1
@<TRIPOS>MOLECULE
*****
 33 37 0 0 0
SMALL
GASTEIGER

@<TRIPOS>ATOM
      1 C         141.7312  142.3715  165.3585 C.ar    1  UNL1        0.0908
      2 C         141.2175  142.3436  166.7675 C.ar    1  UNL1        0.1496
      3 O         139.9315  143.1147  166.8073 O.2     1  UNL1       -0.4534
      4 C         139.6504  143.6192  165.4230 C.ar    1  UNL1        0.1454
      5 C         138.5254  144.4375  164.8621 C.ar    1  UNL1        0.0406
      6 C         138.5126  144.7964  163.4058 C.ar    1  UNL1        0.0395
      7 C         139.6249  144.3371  162.5103 C.ar    1  UNL1        0.1311
      8 O         139.6121  144.6961  161.0539 O.3     1  UNL1       -0.5058
      9 C         140.7499  143.5189  163.0712 C.ar    1  UNL1        0.0308
     10 C         140.7627  143.1599  164.5275 C.ar    1  UNL1        0.0421
     11 H         138.9092  145.2073  160.7036 H       1  UNL1        0.2922
     12 C         141.8745  141.6639  167.9322 C.ar    1  UNL1        0.0349
     13 C         141.5254  140.2439  168.2663 C.ar    1  UNL1        0.0061
     14 C         142.1823  139.5642  169.4310 C.ar    1  UNL1        0.0367
     15 C         143.1883  140.3045  170.2615 C.ar    1  UNL1        0.1337
     16 O         143.8453  139.6248  171.4261 O.3     1  UNL1       -0.5055
     17 C         143.5374  141.7245  169.9273 C.ar    1  UNL1        0.0367
     18 C         142.8805  142.4042  168.7627 C.ar    1  UNL1        0.0061
     19 H         143.6272  138.7378  171.6349 H       1  UNL1        0.2922
     20 C         144.2320  139.6524  163.9084 C.3     1  UNL1        0.1152
     21 N         142.9711  140.2993  164.4002 N.am    1  UNL1       -0.2725
     22 C         141.6893  139.5206  164.4254 C.3     1  UNL1        0.1152
     23 C         142.9921  141.7247  164.8667 C.2     1  UNL1        0.2522
     24 O         144.2740  142.5033  164.8415 O.2     1  UNL1       -0.2698
     25 C         141.8622  143.0595  162.1757 C.3     1  UNL1        0.1023
     26 N         141.7408  141.7612  161.4345 N.3     1  UNL1       -0.2687
     27 C         140.4809  140.9698  161.2428 C.3     1  UNL1        0.0726
     28 C         140.8193  139.7457  160.4447 C.3     1  UNL1        0.0235
     29 C         142.2883  139.7804  160.1430 C.3     1  UNL1        0.0707
     30 C         143.7202  139.6117  159.7292 C.3     1  UNL1        0.1458
     31 O         143.3704  138.3238  159.0443 O.3     1  UNL1       -0.3535
     32 C         141.9385  138.4927  159.4582 C.3     1  UNL1        0.1458
     33 C         142.8578  141.0261  160.7548 C.3     1  UNL1        0.0772
@<TRIPOS>BOND
     1    20    21    1
     2    21    22    1
     3    21    23   am
     4    23    24    2
     5    23     1    1
     6     1     2   ar
     7     2    12    1
     8    12    13   ar
     9    13    14   ar
    10    14    15   ar
    11    15    16    1
    12    15    17   ar
    13    17    18   ar
    14     2     3   ar
    15     3     4   ar
    16     4     5   ar
    17     5     6   ar
    18     6     7   ar
    19     7     8    1
    20     7     9   ar
    21     9    25    1
    22    25    26    1
    23    26    27    1
    24    27    28    1
    25    28    29    1
    26    29    30    1
    27    30    31    1
    28    31    32    1
    29    29    33    1
    30     9    10   ar
    31    10     1   ar
    32    18    12   ar
    33    10     4   ar
    34    33    26    1
    35    32    29    1
    36    16    19    1
    37     8    11    1
@<TRIPOS>MOLECULE
*****
 33 37 0 0 0
SMALL
GASTEIGER

@<TRIPOS>ATOM
      1 C         141.4908  140.8239  165.5190 C.ar    1  UNL1        0.0908
      2 C         141.0678  140.7278  166.9549 C.ar    1  UNL1        0.1496
      3 O         139.9869  139.6923  167.0514 O.2     1  UNL1       -0.4534
      4 C         139.7418  139.1484  165.6751 C.ar    1  UNL1        0.1454
      5 C         138.7923  138.1068  165.1619 C.ar    1  UNL1        0.0406
      6 C         138.7723  137.7644  163.7017 C.ar    1  UNL1        0.0395
      7 C         139.7019  138.4638  162.7546 C.ar    1  UNL1        0.1311
      8 O         139.6819  138.1214  161.2943 O.3     1  UNL1       -0.5058
      9 C         140.6513  139.5054  163.2678 C.ar    1  UNL1        0.0308
     10 C         140.6713  139.8478  164.7280 C.ar    1  UNL1        0.0421
     11 H         139.0887  137.4706  160.9737 H       1  UNL1        0.2922
     12 C         141.6276  141.5269  168.0943 C.ar    1  UNL1        0.0349
     13 C         143.0080  141.2389  168.6055 C.ar    1  UNL1        0.0061
     14 C         143.5677  142.0380  169.7449 C.ar    1  UNL1        0.0367
     15 C         142.7470  143.1251  170.3730 C.ar    1  UNL1        0.1337
     16 O         143.3067  143.9242  171.5124 O.3     1  UNL1       -0.5055
     17 C         141.3665  143.4131  169.8618 C.ar    1  UNL1        0.0367
     18 C         140.8068  142.6140  168.7224 C.ar    1  UNL1        0.0061
     19 H         144.1690  143.7442  171.8318 H       1  UNL1        0.2922
     20 C         144.9694  142.1107  164.1071 C.3     1  UNL1        0.1152
     21 N         143.9124  141.1987  164.6557 N.am    1  UNL1       -0.2725
     22 C         144.2202  139.7493  164.8898 C.3     1  UNL1        0.1152
     23 C         142.5478  141.7359  164.9703 C.2     1  UNL1        0.2522
     24 O         142.2401  143.1853  164.7363 O.2     1  UNL1       -0.2698
     25 C         141.5808  140.2048  162.3207 C.3     1  UNL1        0.1023
     26 N         141.3293  141.6340  161.9414 N.3     1  UNL1       -0.2687
     27 C         142.2932  142.5419  161.2364 C.3     1  UNL1        0.0726
     28 C         141.6295  143.8754  161.0598 C.3     1  UNL1        0.0235
     29 C         140.2553  143.7917  161.6555 C.3     1  UNL1        0.0707
     30 C         138.8589  143.9327  162.1846 C.3     1  UNL1        0.1458
     31 O         138.8254  145.3575  161.7168 O.3     1  UNL1       -0.3535
     32 C         140.2219  145.2164  161.1877 C.3     1  UNL1        0.1458
     33 C         140.0699  142.4065  162.2004 C.3     1  UNL1        0.0772
@<TRIPOS>BOND
     1    20    21    1
     2    21    22    1
     3    21    23   am
     4    23    24    2
     5    23     1    1
     6     1     2   ar
     7     2    12    1
     8    12    13   ar
     9    13    14   ar
    10    14    15   ar
    11    15    16    1
    12    15    17   ar
    13    17    18   ar
    14     2     3   ar
    15     3     4   ar
    16     4     5   ar
    17     5     6   ar
    18     6     7   ar
    19     7     8    1
    20     7     9   ar
    21     9    25    1
    22    25    26    1
    23    26    27    1
    24    27    28    1
    25    28    29    1
    26    29    30    1
    27    30    31    1
    28    31    32    1
    29    29    33    1
    30     9    10   ar
    31    10     1   ar
    32    18    12   ar
    33    10     4   ar
    34    33    26    1
    35    32    29    1
    36    16    19    1
    37     8    11    1
@<TRIPOS>MOLECULE
*****
 33 37 0 0 0
SMALL
GASTEIGER

@<TRIPOS>ATOM
      1 C         141.6518  140.6287  165.6178 C.ar    1  UNL1        0.0908
      2 C         141.1475  140.6766  167.0297 C.ar    1  UNL1        0.1496
      3 O         139.9976  139.7201  167.1438 O.2     1  UNL1       -0.4534
      4 C         139.7913  139.0812  165.8024 C.ar    1  UNL1        0.1454
      5 C         138.8046  138.0606  165.3179 C.ar    1  UNL1        0.0406
      6 C         138.8402  137.6016  163.8904 C.ar    1  UNL1        0.0395
      7 C         139.8626  138.1631  162.9473 C.ar    1  UNL1        0.1311
      8 O         139.8982  137.7041  161.5196 O.3     1  UNL1       -0.5058
      9 C         140.8493  139.1837  163.4318 C.ar    1  UNL1        0.0308
     10 C         140.8136  139.6427  164.8593 C.ar    1  UNL1        0.0421
     11 H         139.2818  137.0665  161.2170 H       1  UNL1        0.2922
     12 C         141.6966  141.5308  168.1336 C.ar    1  UNL1        0.0349
     13 C         140.8364  142.5853  168.7646 C.ar    1  UNL1        0.0061
     14 C         141.3855  143.4395  169.8686 C.ar    1  UNL1        0.0367
     15 C         142.7948  143.2394  170.3415 C.ar    1  UNL1        0.1337
     16 O         143.3439  144.0936  171.4455 O.3     1  UNL1       -0.5055
     17 C         143.6550  142.1849  169.7106 C.ar    1  UNL1        0.0367
     18 C         143.1059  141.3306  168.6066 C.ar    1  UNL1        0.0061
     19 H         142.8066  144.7523  171.8396 H       1  UNL1        0.2922
     20 C         143.7444  143.6740  164.1696 C.3     1  UNL1        0.1152
     21 N         142.6024  142.8759  164.7254 N.am    1  UNL1       -0.2725
     22 C         141.2690  143.5271  164.9446 C.3     1  UNL1        0.1152
     23 C         142.7938  141.4268  165.0620 C.2     1  UNL1        0.2522
     24 O         144.1273  140.7757  164.8428 O.2     1  UNL1       -0.2698
     25 C         141.8716  139.7453  162.4887 C.3     1  UNL1        0.1023
     26 N         141.6692  141.1035  161.8850 N.3     1  UNL1       -0.2687
     27 C         142.6970  141.8964  161.1334 C.3     1  UNL1        0.0726
     28 C         142.0664  143.1902  160.7108 C.3     1  UNL1        0.0235
     29 C         140.6488  143.1969  161.2013 C.3     1  UNL1        0.0707
     30 C         139.2171  143.4159  161.5913 C.3     1  UNL1        0.1458
     31 O         139.2389  144.7563  160.9183 O.3     1  UNL1       -0.3535
     32 C         140.6706  144.5372  160.5284 C.3     1  UNL1        0.1458
     33 C         140.4033  141.9072  161.9270 C.3     1  UNL1        0.0772
@<TRIPOS>BOND
     1    20    21    1
     2    21    22    1
     3    21    23   am
     4    23    24    2
     5    23     1    1
     6     1     2   ar
     7     2    12    1
     8    12    13   ar
     9    13    14   ar
    10    14    15   ar
    11    15    16    1
    12    15    17   ar
    13    17    18   ar
    14     2     3   ar
    15     3     4   ar
    16     4     5   ar
    17     5     6   ar
    18     6     7   ar
    19     7     8    1
    20     7     9   ar
    21     9    25    1
    22    25    26    1
    23    26    27    1
    24    27    28    1
    25    28    29    1
    26    29    30    1
    27    30    31    1
    28    31    32    1
    29    29    33    1
    30     9    10   ar
    31    10     1   ar
    32    18    12   ar
    33    10     4   ar
    34    33    26    1
    35    32    29    1
    36    16    19    1
    37     8    11    1
@<TRIPOS>MOLECULE
*****
 33 37 0 0 0
SMALL
GASTEIGER

@<TRIPOS>ATOM
      1 C         142.1921  142.8066  165.3111 C.ar    1  UNL1        0.0908
      2 C         141.4610  142.5227  166.5897 C.ar    1  UNL1        0.1496
      3 O         140.0902  143.1224  166.4827 O.2     1  UNL1       -0.4534
      4 C         139.9743  143.7769  165.1381 C.ar    1  UNL1        0.1454
      5 C         138.8536  144.5254  164.4795 C.ar    1  UNL1        0.0406
      6 C         139.0320  145.0787  163.0967 C.ar    1  UNL1        0.0395
      7 C         140.3311  144.8836  162.3726 C.ar    1  UNL1        0.1311
      8 O         140.5094  145.4369  160.9898 O.3     1  UNL1       -0.5058
      9 C         141.4517  144.1351  163.0313 C.ar    1  UNL1        0.0308
     10 C         141.2733  143.5817  164.4140 C.ar    1  UNL1        0.0421
     11 H         139.8094  145.9045  160.5784 H       1  UNL1        0.2922
     12 C         142.0050  141.7711  167.7683 C.ar    1  UNL1        0.0349
     13 C         142.9088  142.4617  168.7461 C.ar    1  UNL1        0.0061
     14 C         143.4528  141.7101  169.9247 C.ar    1  UNL1        0.0367
     15 C         143.0930  140.2678  170.1255 C.ar    1  UNL1        0.1337
     16 O         143.6371  139.5162  171.3041 O.3     1  UNL1       -0.5055
     17 C         142.1892  139.5772  169.1477 C.ar    1  UNL1        0.0367
     18 C         141.6452  140.3288  167.9691 C.ar    1  UNL1        0.0061
     19 H         144.2017  139.9476  171.9149 H       1  UNL1        0.2922
     20 C         145.2644  140.6063  164.0986 C.3     1  UNL1        0.1152
     21 N         143.8608  141.0242  164.4231 N.am    1  UNL1       -0.2725
     22 C         142.7221  140.0774  164.1839 C.3     1  UNL1        0.1152
     23 C         143.5957  142.3887  164.9867 C.2     1  UNL1        0.2522
     24 O         144.7345  143.3355  165.2258 O.2     1  UNL1       -0.2698
     25 C         142.7508  143.9399  162.3071 C.3     1  UNL1        0.1023
     26 N         142.8485  142.9322  161.2004 N.3     1  UNL1       -0.2687
     27 C         141.9459  141.7507  161.0015 C.3     1  UNL1        0.0726
     28 C         142.4055  141.0172  159.7764 C.3     1  UNL1        0.0235
     29 C         143.5922  141.7454  159.2181 C.3     1  UNL1        0.0707
     30 C         144.7795  142.3069  158.4937 C.3     1  UNL1        0.1458
     31 O         144.6904  141.1976  157.4879 O.3     1  UNL1       -0.3535
     32 C         143.5030  140.6362  158.2124 C.3     1  UNL1        0.1458
     33 C         143.8660  142.9289  160.0983 C.3     1  UNL1        0.0772
@<TRIPOS>BOND
     1    20    21    1
     2    21    22    1
     3    21    23   am
     4    23    24    2
     5    23     1    1
     6     1     2   ar
     7     2    12    1
     8    12    13   ar
     9    13    14   ar
    10    14    15   ar
    11    15    16    1
    12    15    17   ar
    13    17    18   ar
    14     2     3   ar
    15     3     4   ar
    16     4     5   ar
    17     5     6   ar
    18     6     7   ar
    19     7     8    1
    20     7     9   ar
    21     9    25    1
    22    25    26    1
    23    26    27    1
    24    27    28    1
    25    28    29    1
    26    29    30    1
    27    30    31    1
    28    31    32    1
    29    29    33    1
    30     9    10   ar
    31    10     1   ar
    32    18    12   ar
    33    10     4   ar
    34    33    26    1
    35    32    29    1
    36    16    19    1
    37     8    11    1
@<TRIPOS>MOLECULE
*****
 33 37 0 0 0
SMALL
GASTEIGER

@<TRIPOS>ATOM
      1 C         141.7001  142.2535  165.2615 C.ar    1  UNL1        0.0908
      2 C         141.2611  142.3660  166.6914 C.ar    1  UNL1        0.1496
      3 O         140.0742  143.2819  166.7412 O.2     1  UNL1       -0.4534
      4 C         139.7796  143.7353  165.3421 C.ar    1  UNL1        0.1454
      5 C         138.7262  144.6449  164.7826 C.ar    1  UNL1        0.0406
      6 C         138.6776  144.9188  163.3087 C.ar    1  UNL1        0.0395
      7 C         139.6825  144.2833  162.3942 C.ar    1  UNL1        0.1311
      8 O         139.6339  144.5573  160.9202 O.3     1  UNL1       -0.5058
      9 C         140.7359  143.3737  162.9536 C.ar    1  UNL1        0.0308
     10 C         140.7845  143.0997  164.4276 C.ar    1  UNL1        0.0421
     11 H         138.9758  145.1254  160.5707 H       1  UNL1        0.2922
     12 C         141.8974  141.6827  167.8654 C.ar    1  UNL1        0.0349
     13 C         141.5274  140.2683  168.2010 C.ar    1  UNL1        0.0061
     14 C         142.1636  139.5850  169.3750 C.ar    1  UNL1        0.0367
     15 C         143.1699  140.3161  170.2134 C.ar    1  UNL1        0.1337
     16 O         143.8061  139.6327  171.3874 O.3     1  UNL1       -0.5055
     17 C         143.5399  141.7304  169.8779 C.ar    1  UNL1        0.0367
     18 C         142.9036  142.4137  168.7039 C.ar    1  UNL1        0.0061
     19 H         143.5750  138.7492  171.5970 H       1  UNL1        0.2922
     20 C         145.3671  141.2388  164.1331 C.3     1  UNL1        0.1152
     21 N         144.2148  142.0544  164.6401 N.am    1  UNL1       -0.2725
     22 C         144.4253  143.4868  165.0327 C.3     1  UNL1        0.1152
     23 C         142.8523  141.4378  164.7545 C.2     1  UNL1        0.2522
     24 O         142.6420  140.0054  164.3619 O.2     1  UNL1       -0.2698
     25 C         141.7407  142.7381  162.0391 C.3     1  UNL1        0.1023
     26 N         141.2883  142.0791  160.7699 N.3     1  UNL1       -0.2687
     27 C         141.8704  142.3010  159.4052 C.3     1  UNL1        0.0726
     28 C         141.1162  141.4416  158.4343 C.3     1  UNL1        0.0235
     29 C         140.0681  140.6885  159.1988 C.3     1  UNL1        0.0707
     30 C         138.9621  139.8418  159.7554 C.3     1  UNL1        0.1458
     31 O         138.6792  139.3087  158.3821 O.3     1  UNL1       -0.3535
     32 C         139.7852  140.1555  157.8256 C.3     1  UNL1        0.1458
     33 C         140.1744  141.0826  160.6423 C.3     1  UNL1        0.0772
@<TRIPOS>BOND
     1    20    21    1
     2    21    22    1
     3    21    23   am
     4    23    24    2
     5    23     1    1
     6     1     2   ar
     7     2    12    1
     8    12    13   ar
     9    13    14   ar
    10    14    15   ar
    11    15    16    1
    12    15    17   ar
    13    17    18   ar
    14     2     3   ar
    15     3     4   ar
    16     4     5   ar
    17     5     6   ar
    18     6     7   ar
    19     7     8    1
    20     7     9   ar
    21     9    25    1
    22    25    26    1
    23    26    27    1
    24    27    28    1
    25    28    29    1
    26    29    30    1
    27    30    31    1
    28    31    32    1
    29    29    33    1
    30     9    10   ar
    31    10     1   ar
    32    18    12   ar
    33    10     4   ar
    34    33    26    1
    35    32    29    1
    36    16    19    1
    37     8    11    1
@<TRIPOS>MOLECULE
*****
 33 37 0 0 0
SMALL
GASTEIGER

@<TRIPOS>ATOM
      1 C         141.4592  142.8664  165.1765 C.ar    1  UNL1        0.0908
      2 C         140.3571  142.9619  166.1895 C.ar    1  UNL1        0.1496
      3 O         139.3050  143.8816  165.6445 O.2     1  UNL1       -0.4534
      4 C         139.7568  144.3545  164.2946 C.ar    1  UNL1        0.1454
      5 C         139.1279  145.2754  163.2914 C.ar    1  UNL1        0.0406
      6 C         139.8303  145.5688  161.9990 C.ar    1  UNL1        0.0395
      7 C         141.1617  144.9414  161.7097 C.ar    1  UNL1        0.1311
      8 O         141.8642  145.2348  160.4172 O.3     1  UNL1       -0.5058
      9 C         141.7906  144.0205  162.7129 C.ar    1  UNL1        0.0308
     10 C         141.0882  143.7271  164.0053 C.ar    1  UNL1        0.0421
     11 H         141.4713  145.8101  159.7906 H       1  UNL1        0.2922
     12 C         140.3146  142.2608  167.5149 C.ar    1  UNL1        0.0349
     13 C         140.0128  140.7928  167.5775 C.ar    1  UNL1        0.0061
     14 C         139.9703  140.0918  168.9029 C.ar    1  UNL1        0.0367
     15 C         140.2297  140.8586  170.1657 C.ar    1  UNL1        0.1337
     16 O         140.1872  140.1575  171.4911 O.3     1  UNL1       -0.5055
     17 C         140.5315  142.3265  170.1031 C.ar    1  UNL1        0.0367
     18 C         140.5740  143.0276  168.7777 C.ar    1  UNL1        0.0061
     19 H         139.9987  139.2405  171.5302 H       1  UNL1        0.2922
     20 C         143.9906  139.8168  164.9711 C.3     1  UNL1        0.1152
     21 N         142.7374  140.6302  164.8367 N.am    1  UNL1       -0.2725
     22 C         141.5094  140.0206  164.2280 C.3     1  UNL1        0.1152
     23 C         142.7123  142.0530  165.3109 C.2     1  UNL1        0.2522
     24 O         143.9404  142.6624  165.9196 O.2     1  UNL1       -0.2698
     25 C         143.1220  143.3930  162.4236 C.3     1  UNL1        0.1023
     26 N         143.2807  142.4806  161.2437 N.3     1  UNL1       -0.2687
     27 C         144.2771  142.6397  160.1338 C.3     1  UNL1        0.0726
     28 C         144.0830  141.5063  159.1706 C.3     1  UNL1        0.0235
     29 C         142.9666  140.6466  159.6852 C.3     1  UNL1        0.0707
     30 C         141.8888  139.6550  160.0089 C.3     1  UNL1        0.1458
     31 O         142.2201  138.8882  158.7629 O.3     1  UNL1       -0.3535
     32 C         143.2979  139.8800  158.4393 C.3     1  UNL1        0.1458
     33 C         142.4707  141.2488  160.9665 C.3     1  UNL1        0.0772
@<TRIPOS>BOND
     1    20    21    1
     2    21    22    1
     3    21    23   am
     4    23    24    2
     5    23     1    1
     6     1     2   ar
     7     2    12    1
     8    12    13   ar
     9    13    14   ar
    10    14    15   ar
    11    15    16    1
    12    15    17   ar
    13    17    18   ar
    14     2     3   ar
    15     3     4   ar
    16     4     5   ar
    17     5     6   ar
    18     6     7   ar
    19     7     8    1
    20     7     9   ar
    21     9    25    1
    22    25    26    1
    23    26    27    1
    24    27    28    1
    25    28    29    1
    26    29    30    1
    27    30    31    1
    28    31    32    1
    29    29    33    1
    30     9    10   ar
    31    10     1   ar
    32    18    12   ar
    33    10     4   ar
    34    33    26    1
    35    32    29    1
    36    16    19    1
    37     8    11    1
