@<TRIPOS>MOLECULE
*****
 41 45 0 0 0
SMALL
GASTEIGER

@<TRIPOS>ATOM
      1 C         142.8564  140.2292  161.1827 C.ar    1  UNL1        0.0272
      2 C         141.6352  139.5251  161.6954 C.ar    1  UNL1       -0.0004
      3 C         140.9253  138.5275  160.8289 C.ar    1  UNL1       -0.0024
      4 C         141.4366  138.2341  159.4496 C.ar    1  UNL1       -0.0003
      5 C         142.6578  138.9383  158.9369 C.ar    1  UNL1        0.0294
      6 C         143.3676  139.9359  159.8034 C.ar    1  UNL1        0.1401
      7 F         144.5888  140.6400  159.2907 F       1  UNL1       -0.2042
      8 C         143.5940  143.5041  163.2996 C.ar    1  UNL1       -0.0061
      9 C         144.9859  143.2220  163.7825 C.ar    1  UNL1       -0.0029
     10 C         145.6680  141.9424  163.3987 C.ar    1  UNL1       -0.0003
     11 C         144.9581  140.9448  162.5321 C.ar    1  UNL1        0.0001
     12 C         143.5662  141.2269  162.0493 C.ar    1  UNL1        0.0019
     13 C         142.8842  142.5065  162.4331 C.ar    1  UNL1       -0.0028
     14 C         142.9120  144.7838  163.6834 C.3     1  UNL1        0.0992
     15 C         137.8700  144.2823  164.8354 C.3     1  UNL1        0.0186
     16 C         138.9497  144.7502  163.9051 C.3     1  UNL1        0.0703
     17 C         140.3910  144.5330  164.2594 C.3     1  UNL1        0.0882
     18 N         141.4706  145.0009  163.3291 N.3     1  UNL1       -0.2666
     19 C         141.1090  145.6860  162.0446 C.3     1  UNL1        0.0897
     20 C         139.6677  145.9031  161.6904 C.3     1  UNL1        0.0861
     21 N         138.5881  145.4352  162.6207 N.3     1  UNL1       -0.2963
     22 H         138.0067  144.7839  162.0931 H       1  UNL1        0.1233
     23 C         139.7042  137.8234  161.3417 C.3     1  UNL1        0.1166
     24 N         139.1105  138.2165  162.6619 N.am    1  UNL1       -0.2969
     25 C         139.7680  137.7833  163.9386 C.2     1  UNL1        0.2461
     26 O         141.0190  136.9570  163.8952 O.2     1  UNL1       -0.2701
     27 H         138.2894  138.7589  162.6904 H       1  UNL1        0.1501
     28 C         139.1743  138.1766  165.2589 C.ar    1  UNL1        0.0530
     29 C         138.0435  137.3804  165.8397 C.ar    1  UNL1        0.0045
     30 C         137.4498  137.7736  167.1599 C.ar    1  UNL1       -0.0002
     31 C         137.9869  138.9630  167.8993 C.ar    1  UNL1       -0.0043
     32 C         139.1178  139.7592  167.3185 C.ar    1  UNL1       -0.0220
     33 C         139.7114  139.3660  165.9983 C.ar    1  UNL1        0.0002
     34 C         139.6550  140.9486  168.0579 C.3     1  UNL1        0.0264
     35 C         140.9540  140.8458  168.8010 C.3     1  UNL1        0.0071
     36 C         141.2995  139.5851  169.5366 C.3     1  UNL1        0.0175
     37 C         142.5985  139.4824  170.2796 C.3     1  UNL1        0.0686
     38 N         143.5519  140.6404  170.2871 N.3     1  UNL1       -0.2975
     39 C         143.2063  141.9011  169.5515 C.3     1  UNL1        0.0686
     40 C         141.9074  142.0038  168.8084 C.3     1  UNL1        0.0175
     41 H         144.4299  140.3014  169.8940 H       1  UNL1        0.1232
@<TRIPOS>BOND
     1    16    15    1
     2    16    17    1
     3    17    18    1
     4    18    14    1
     5    14     8    1
     6     8     9   ar
     7     9    10   ar
     8    10    11   ar
     9    11    12   ar
    10    12     1    1
    11     1     2   ar
    12     2     3   ar
    13     3    23    1
    14    23    24    1
    15    24    25   am
    16    25    26    2
    17    25    28    1
    18    28    29   ar
    19    29    30   ar
    20    30    31   ar
    21    31    32   ar
    22    32    34    1
    23    34    35    1
    24    35    36    1
    25    36    37    1
    26    37    38    1
    27    38    39    1
    28    39    40    1
    29    32    33   ar
    30     3     4   ar
    31     4     5   ar
    32     5     6   ar
    33     6     7    1
    34    12    13   ar
    35    18    19    1
    36    19    20    1
    37    20    21    1
    38    21    16    1
    39    13     8   ar
    40     6     1   ar
    41    33    28   ar
    42    40    35    1
    43    24    27    1
    44    38    41    1
    45    21    22    1
@<TRIPOS>MOLECULE
*****
 41 45 0 0 0
SMALL
GASTEIGER

@<TRIPOS>ATOM
      1 C         142.3800  138.6038  158.5610 C.ar    1  UNL1        0.0272
      2 C         142.5635  138.0088  159.9257 C.ar    1  UNL1       -0.0004
      3 C         143.2600  138.7927  160.9982 C.ar    1  UNL1       -0.0024
      4 C         143.7730  140.1717  160.7060 C.ar    1  UNL1       -0.0003
      5 C         143.5894  140.7667  159.3414 C.ar    1  UNL1        0.0294
      6 C         142.8929  139.9827  158.2689 C.ar    1  UNL1        0.1401
      7 F         142.7094  140.5777  156.9042 F       1  UNL1       -0.2042
      8 C         141.7357  135.9884  155.6464 C.ar    1  UNL1       -0.0061
      9 C         140.2904  136.2518  155.3435 C.ar    1  UNL1       -0.0029
     10 C         139.5416  137.2992  156.1130 C.ar    1  UNL1       -0.0003
     11 C         140.2382  138.0832  157.1856 C.ar    1  UNL1        0.0001
     12 C         141.6834  137.8198  157.4885 C.ar    1  UNL1        0.0019
     13 C         142.4322  136.7724  156.7189 C.ar    1  UNL1       -0.0028
     14 C         142.4845  134.9410  154.8769 C.3     1  UNL1        0.0992
     15 C         145.4422  132.0193  157.9940 C.3     1  UNL1        0.0186
     16 C         144.2673  132.1561  157.0715 C.3     1  UNL1        0.0703
     17 C         143.9633  133.4801  156.4354 C.3     1  UNL1        0.0882
     18 N         142.7885  133.6169  155.5129 N.3     1  UNL1       -0.2666
     19 C         141.9176  132.4297  155.2264 C.3     1  UNL1        0.0897
     20 C         142.2216  131.1057  155.8625 C.3     1  UNL1        0.0861
     21 N         143.3965  130.9689  156.7850 N.3     1  UNL1       -0.2963
     22 H         144.0007  130.2496  156.3876 H       1  UNL1        0.1233
     23 C         143.4435  138.1977  162.3628 C.3     1  UNL1        0.1166
     24 N         142.5522  138.6222  163.4921 N.am    1  UNL1       -0.2969
     25 C         141.1952  138.0027  163.6501 C.2     1  UNL1        0.2461
     26 O         140.7296  136.9589  162.6787 O.2     1  UNL1       -0.2701
     27 H         142.8578  139.3073  164.1297 H       1  UNL1        0.1501
     28 C         140.3039  138.4272  164.7795 C.ar    1  UNL1        0.0530
     29 C         139.0515  137.6570  165.0767 C.ar    1  UNL1        0.0045
     30 C         138.1602  138.0815  166.2060 C.ar    1  UNL1       -0.0002
     31 C         138.5213  139.2761  167.0382 C.ar    1  UNL1       -0.0043
     32 C         139.7737  140.0463  166.7409 C.ar    1  UNL1       -0.0220
     33 C         140.6650  139.6218  165.6116 C.ar    1  UNL1        0.0002
     34 C         140.1348  141.2410  167.5730 C.3     1  UNL1        0.0264
     35 C         140.8099  141.0546  168.8995 C.3     1  UNL1        0.0071
     36 C         140.4938  141.9783  170.0383 C.3     1  UNL1        0.0175
     37 C         141.1689  141.7920  171.3647 C.3     1  UNL1        0.0686
     38 N         142.1601  140.6819  171.5524 N.3     1  UNL1       -0.2975
     39 C         142.4762  139.7582  170.4136 C.3     1  UNL1        0.0686
     40 C         141.8011  139.9446  169.0872 C.3     1  UNL1        0.0175
     41 H         141.8108  140.1009  172.3145 H       1  UNL1        0.1232
@<TRIPOS>BOND
     1    16    15    1
     2    16    17    1
     3    17    18    1
     4    18    14    1
     5    14     8    1
     6     8     9   ar
     7     9    10   ar
     8    10    11   ar
     9    11    12   ar
    10    12     1    1
    11     1     2   ar
    12     2     3   ar
    13     3    23    1
    14    23    24    1
    15    24    25   am
    16    25    26    2
    17    25    28    1
    18    28    29   ar
    19    29    30   ar
    20    30    31   ar
    21    31    32   ar
    22    32    34    1
    23    34    35    1
    24    35    36    1
    25    36    37    1
    26    37    38    1
    27    38    39    1
    28    39    40    1
    29    32    33   ar
    30     3     4   ar
    31     4     5   ar
    32     5     6   ar
    33     6     7    1
    34    12    13   ar
    35    18    19    1
    36    19    20    1
    37    20    21    1
    38    21    16    1
    39    13     8   ar
    40     6     1   ar
    41    33    28   ar
    42    40    35    1
    43    24    27    1
    44    38    41    1
    45    21    22    1
@<TRIPOS>MOLECULE
*****
 41 45 0 0 0
SMALL
GASTEIGER

@<TRIPOS>ATOM
      1 C         139.2469  140.7290  164.8969 C.ar    1  UNL1        0.0272
      2 C         139.0420  139.8394  163.7067 C.ar    1  UNL1       -0.0004
      3 C         138.7862  138.3742  163.9008 C.ar    1  UNL1       -0.0024
      4 C         138.7353  137.7986  165.2850 C.ar    1  UNL1       -0.0003
      5 C         138.9402  138.6883  166.4752 C.ar    1  UNL1        0.0294
      6 C         139.1960  140.1535  166.2811 C.ar    1  UNL1        0.1401
      7 F         139.4009  141.0431  167.4713 F       1  UNL1       -0.2042
      8 C         141.1541  144.1510  164.2624 C.ar    1  UNL1       -0.0061
      9 C         140.0143  145.1248  164.3147 C.ar    1  UNL1       -0.0029
     10 C         138.6187  144.6333  164.5612 C.ar    1  UNL1       -0.0003
     11 C         138.3629  143.1680  164.7552 C.ar    1  UNL1        0.0001
     12 C         139.5027  142.1943  164.7029 C.ar    1  UNL1        0.0019
     13 C         140.8983  142.6858  164.4564 C.ar    1  UNL1       -0.0028
     14 C         142.5497  144.6425  164.0159 C.3     1  UNL1        0.0992
     15 C         144.7304  142.4539  159.8381 C.3     1  UNL1        0.0186
     16 C         144.6632  142.6305  161.3261 C.3     1  UNL1        0.0703
     17 C         143.6401  143.5482  161.9270 C.3     1  UNL1        0.0882
     18 N         143.5729  143.7248  163.4150 N.3     1  UNL1       -0.2666
     19 C         144.5288  142.9838  164.3022 C.3     1  UNL1        0.0897
     20 C         145.5519  142.0661  163.7013 C.3     1  UNL1        0.0861
     21 N         145.6191  141.8895  162.2133 N.3     1  UNL1       -0.2963
     22 H         145.4825  140.8958  162.0283 H       1  UNL1        0.1233
     23 C         138.5813  137.4846  162.7106 C.3     1  UNL1        0.1166
     24 N         138.4952  138.0788  161.3360 N.am    1  UNL1       -0.2969
     25 C         139.7488  138.3860  160.5718 C.2     1  UNL1        0.2461
     26 O         141.0886  138.0990  161.1822 O.2     1  UNL1       -0.2701
     27 H         137.6158  138.2672  160.9354 H       1  UNL1        0.1501
     28 C         139.6627  138.9802  159.1972 C.ar    1  UNL1        0.0530
     29 C         139.8462  138.1085  157.9904 C.ar    1  UNL1        0.0045
     30 C         139.7601  138.7027  156.6158 C.ar    1  UNL1       -0.0002
     31 C         139.4903  140.1687  156.4480 C.ar    1  UNL1       -0.0043
     32 C         139.3068  141.0405  157.6549 C.ar    1  UNL1       -0.0220
     33 C         139.3929  140.4462  159.0294 C.ar    1  UNL1        0.0002
     34 C         139.0370  142.5064  157.4871 C.3     1  UNL1        0.0264
     35 C         139.9193  143.5136  158.1635 C.3     1  UNL1        0.0071
     36 C         140.9571  144.2529  157.3722 C.3     1  UNL1        0.0175
     37 C         141.8392  145.2600  158.0485 C.3     1  UNL1        0.0686
     38 N         141.6836  145.5277  159.5162 N.3     1  UNL1       -0.2975
     39 C         140.6458  144.7883  160.3076 C.3     1  UNL1        0.0686
     40 C         139.7636  143.7813  159.6312 C.3     1  UNL1        0.0175
     41 H         141.4756  146.5215  159.6138 H       1  UNL1        0.1232
@<TRIPOS>BOND
     1    16    15    1
     2    16    17    1
     3    17    18    1
     4    18    14    1
     5    14     8    1
     6     8     9   ar
     7     9    10   ar
     8    10    11   ar
     9    11    12   ar
    10    12     1    1
    11     1     2   ar
    12     2     3   ar
    13     3    23    1
    14    23    24    1
    15    24    25   am
    16    25    26    2
    17    25    28    1
    18    28    29   ar
    19    29    30   ar
    20    30    31   ar
    21    31    32   ar
    22    32    34    1
    23    34    35    1
    24    35    36    1
    25    36    37    1
    26    37    38    1
    27    38    39    1
    28    39    40    1
    29    32    33   ar
    30     3     4   ar
    31     4     5   ar
    32     5     6   ar
    33     6     7    1
    34    12    13   ar
    35    18    19    1
    36    19    20    1
    37    20    21    1
    38    21    16    1
    39    13     8   ar
    40     6     1   ar
    41    33    28   ar
    42    40    35    1
    43    24    27    1
    44    38    41    1
    45    21    22    1
@<TRIPOS>MOLECULE
*****
 41 45 0 0 0
SMALL
GASTEIGER

@<TRIPOS>ATOM
      1 C         139.9761  141.0282  163.5700 C.ar    1  UNL1        0.0272
      2 C         140.3403  142.4064  163.1030 C.ar    1  UNL1       -0.0004
      3 C         139.3437  143.2274  162.3397 C.ar    1  UNL1       -0.0024
      4 C         137.9830  142.6703  162.0433 C.ar    1  UNL1       -0.0003
      5 C         137.6188  141.2921  162.5103 C.ar    1  UNL1        0.0294
      6 C         138.6153  140.4711  163.2737 C.ar    1  UNL1        0.1401
      7 F         138.2511  139.0930  163.7407 F       1  UNL1       -0.2042
      8 C         142.3208  139.7546  166.5078 C.ar    1  UNL1       -0.0061
      9 C         142.9660  138.5653  165.8602 C.ar    1  UNL1       -0.0029
     10 C         142.6145  138.1969  164.4493 C.ar    1  UNL1       -0.0003
     11 C         141.6179  139.0179  163.6859 C.ar    1  UNL1        0.0001
     12 C         140.9727  140.2072  164.3334 C.ar    1  UNL1        0.0019
     13 C         141.3242  140.5756  165.7444 C.ar    1  UNL1       -0.0028
     14 C         142.6723  140.1230  167.9187 C.3     1  UNL1        0.0992
     15 C         140.3796  144.2673  170.0562 C.3     1  UNL1        0.0186
     16 C         140.4820  142.7798  169.8922 C.3     1  UNL1        0.0703
     17 C         141.5259  142.1951  168.9875 C.3     1  UNL1        0.0882
     18 N         141.6283  140.7076  168.8235 N.3     1  UNL1       -0.2666
     19 C         140.6869  139.8048  169.5642 C.3     1  UNL1        0.0897
     20 C         139.6431  140.3895  170.4688 C.3     1  UNL1        0.0861
     21 N         139.5406  141.8770  170.6328 N.3     1  UNL1       -0.2963
     22 H         139.6650  142.0729  171.6261 H       1  UNL1        0.1233
     23 C         139.7079  144.6055  161.8727 C.3     1  UNL1        0.1166
     24 N         139.7347  144.9177  160.4058 N.am    1  UNL1       -0.2969
     25 C         141.0366  144.9093  159.6608 C.2     1  UNL1        0.2461
     26 O         142.3117  144.5887  160.3827 O.2     1  UNL1       -0.2701
     27 H         138.8977  145.1282  159.9320 H       1  UNL1        0.1501
     28 C         141.0632  145.2215  158.1938 C.ar    1  UNL1        0.0530
     29 C         142.1610  144.6744  157.3305 C.ar    1  UNL1        0.0045
     30 C         142.1877  144.9866  155.8635 C.ar    1  UNL1       -0.0002
     31 C         141.1166  145.8459  155.2600 C.ar    1  UNL1       -0.0043
     32 C         140.0188  146.3931  156.1235 C.ar    1  UNL1       -0.0220
     33 C         139.9921  146.0809  157.5904 C.ar    1  UNL1        0.0002
     34 C         138.9476  147.2524  155.5200 C.3     1  UNL1        0.0264
     35 C         139.0196  148.7448  155.6532 C.3     1  UNL1        0.0071
     36 C         138.5618  149.4078  156.9185 C.3     1  UNL1        0.0175
     37 C         138.6338  150.9001  157.0516 C.3     1  UNL1        0.0686
     38 N         139.1636  151.7294  155.9196 N.3     1  UNL1       -0.2975
     39 C         139.6214  151.0665  154.6543 C.3     1  UNL1        0.0686
     40 C         139.5494  149.5742  154.5212 C.3     1  UNL1        0.0175
     41 H         139.9611  152.2503  156.2843 H       1  UNL1        0.1232
@<TRIPOS>BOND
     1    16    15    1
     2    16    17    1
     3    17    18    1
     4    18    14    1
     5    14     8    1
     6     8     9   ar
     7     9    10   ar
     8    10    11   ar
     9    11    12   ar
    10    12     1    1
    11     1     2   ar
    12     2     3   ar
    13     3    23    1
    14    23    24    1
    15    24    25   am
    16    25    26    2
    17    25    28    1
    18    28    29   ar
    19    29    30   ar
    20    30    31   ar
    21    31    32   ar
    22    32    34    1
    23    34    35    1
    24    35    36    1
    25    36    37    1
    26    37    38    1
    27    38    39    1
    28    39    40    1
    29    32    33   ar
    30     3     4   ar
    31     4     5   ar
    32     5     6   ar
    33     6     7    1
    34    12    13   ar
    35    18    19    1
    36    19    20    1
    37    20    21    1
    38    21    16    1
    39    13     8   ar
    40     6     1   ar
    41    33    28   ar
    42    40    35    1
    43    24    27    1
    44    38    41    1
    45    21    22    1
@<TRIPOS>MOLECULE
*****
 41 45 0 0 0
SMALL
GASTEIGER

@<TRIPOS>ATOM
      1 C         142.5119  140.4891  159.1925 C.ar    1  UNL1        0.0272
      2 C         142.8624  140.0803  160.5926 C.ar    1  UNL1       -0.0004
      3 C         143.0861  138.6332  160.9176 C.ar    1  UNL1       -0.0024
      4 C         142.9593  137.5948  159.8426 C.ar    1  UNL1       -0.0003
      5 C         142.6089  138.0036  158.4426 C.ar    1  UNL1        0.0294
      6 C         142.3852  139.4507  158.1175 C.ar    1  UNL1        0.1401
      7 F         142.0347  139.8595  156.7175 F       1  UNL1       -0.2042
      8 C         141.3120  144.2595  159.5000 C.ar    1  UNL1       -0.0061
      9 C         141.8407  144.8307  158.2176 C.ar    1  UNL1       -0.0029
     10 C         142.5932  143.9547  157.2603 C.ar    1  UNL1       -0.0003
     11 C         142.8169  142.5075  157.5853 C.ar    1  UNL1        0.0001
     12 C         142.2882  141.9363  158.8676 C.ar    1  UNL1        0.0019
     13 C         141.5358  142.8123  159.8249 C.ar    1  UNL1       -0.0028
     14 C         140.5596  145.1355  160.4573 C.3     1  UNL1        0.0992
     15 C         137.8353  143.1635  164.4183 C.3     1  UNL1        0.0186
     16 C         139.1003  143.7683  163.8853 C.3     1  UNL1        0.0703
     17 C         139.1975  144.1495  162.4378 C.3     1  UNL1        0.0882
     18 N         140.4624  144.7543  161.9048 N.3     1  UNL1       -0.2666
     19 C         141.6302  144.9780  162.8193 C.3     1  UNL1        0.0897
     20 C         141.5329  144.5968  164.2668 C.3     1  UNL1        0.0861
     21 N         140.2680  143.9920  164.7998 N.3     1  UNL1       -0.2963
     22 H         139.9425  144.6028  165.5490 H       1  UNL1        0.1233
     23 C         143.4366  138.2244  162.3176 C.3     1  UNL1        0.1166
     24 N         142.5559  138.6331  163.4610 N.am    1  UNL1       -0.2969
     25 C         141.1782  138.0543  163.5906 C.2     1  UNL1        0.2461
     26 O         140.6811  137.0667  162.5770 O.2     1  UNL1       -0.2701
     27 H         142.8821  139.2813  164.1263 H       1  UNL1        0.1501
     28 C         140.2975  138.4631  164.7341 C.ar    1  UNL1        0.0530
     29 C         139.0653  137.6694  165.0527 C.ar    1  UNL1        0.0045
     30 C         138.1846  138.0781  166.1961 C.ar    1  UNL1       -0.0002
     31 C         138.5362  139.2806  167.0209 C.ar    1  UNL1       -0.0043
     32 C         139.7685  140.0744  166.7023 C.ar    1  UNL1       -0.0220
     33 C         140.6491  139.6656  165.5589 C.ar    1  UNL1        0.0002
     34 C         140.1202  141.2769  167.5271 C.3     1  UNL1        0.0264
     35 C         140.7703  141.1028  168.8677 C.3     1  UNL1        0.0071
     36 C         140.3706  141.9825  170.0150 C.3     1  UNL1        0.0175
     37 C         141.0207  141.8084  171.3555 C.3     1  UNL1        0.0686
     38 N         142.0704  140.7545  171.5488 N.3     1  UNL1       -0.2975
     39 C         142.4701  139.8747  170.4015 C.3     1  UNL1        0.0686
     40 C         141.8200  140.0489  169.0610 C.3     1  UNL1        0.0175
     41 H         141.7361  140.1384  172.2898 H       1  UNL1        0.1232
@<TRIPOS>BOND
     1    16    15    1
     2    16    17    1
     3    17    18    1
     4    18    14    1
     5    14     8    1
     6     8     9   ar
     7     9    10   ar
     8    10    11   ar
     9    11    12   ar
    10    12     1    1
    11     1     2   ar
    12     2     3   ar
    13     3    23    1
    14    23    24    1
    15    24    25   am
    16    25    26    2
    17    25    28    1
    18    28    29   ar
    19    29    30   ar
    20    30    31   ar
    21    31    32   ar
    22    32    34    1
    23    34    35    1
    24    35    36    1
    25    36    37    1
    26    37    38    1
    27    38    39    1
    28    39    40    1
    29    32    33   ar
    30     3     4   ar
    31     4     5   ar
    32     5     6   ar
    33     6     7    1
    34    12    13   ar
    35    18    19    1
    36    19    20    1
    37    20    21    1
    38    21    16    1
    39    13     8   ar
    40     6     1   ar
    41    33    28   ar
    42    40    35    1
    43    24    27    1
    44    38    41    1
    45    21    22    1
@<TRIPOS>MOLECULE
*****
 41 45 0 0 0
SMALL
GASTEIGER

@<TRIPOS>ATOM
      1 C         139.2124  140.7335  164.9325 C.ar    1  UNL1        0.0272
      2 C         138.9395  139.8169  163.7769 C.ar    1  UNL1       -0.0004
      3 C         138.7154  138.3533  164.0172 C.ar    1  UNL1       -0.0024
      4 C         138.7642  137.8064  165.4131 C.ar    1  UNL1       -0.0003
      5 C         139.0371  138.7231  166.5686 C.ar    1  UNL1        0.0294
      6 C         139.2612  140.1866  166.3283 C.ar    1  UNL1        0.1401
      7 F         139.5342  141.1032  167.4839 F       1  UNL1       -0.2042
      8 C         141.0462  144.1751  164.1957 C.ar    1  UNL1       -0.0061
      9 C         139.8847  145.1243  164.2114 C.ar    1  UNL1       -0.0029
     10 C         138.4992  144.6098  164.4674 C.ar    1  UNL1       -0.0003
     11 C         138.2751  143.1462  164.7078 C.ar    1  UNL1        0.0001
     12 C         139.4365  142.1971  164.6921 C.ar    1  UNL1        0.0019
     13 C         140.8221  142.7116  164.4361 C.ar    1  UNL1       -0.0028
     14 C         142.4318  144.6895  163.9397 C.3     1  UNL1        0.0992
     15 C         144.7571  142.4368  159.8755 C.3     1  UNL1        0.0186
     16 C         144.6453  142.6454  161.3567 C.3     1  UNL1        0.0703
     17 C         143.5945  143.5631  161.9076 C.3     1  UNL1        0.0882
     18 N         143.4827  143.7718  163.3888 N.3     1  UNL1       -0.2666
     19 C         144.4217  143.0627  164.3191 C.3     1  UNL1        0.0897
     20 C         145.4725  142.1451  163.7681 C.3     1  UNL1        0.0861
     21 N         145.5843  141.9364  162.2869 N.3     1  UNL1       -0.2963
     22 H         145.4650  140.9372  162.1205 H       1  UNL1        0.1233
     23 C         138.4424  137.4367  162.8617 C.3     1  UNL1        0.1166
     24 N         138.3523  137.9901  161.4705 N.am    1  UNL1       -0.2969
     25 C         139.6038  138.2801  160.6961 C.2     1  UNL1        0.2461
     26 O         140.9454  138.0167  161.3129 O.2     1  UNL1       -0.2701
     27 H         137.4717  138.1630  161.0656 H       1  UNL1        0.1501
     28 C         139.5135  138.8335  159.3047 C.ar    1  UNL1        0.0530
     29 C         138.9191  140.1913  159.0748 C.ar    1  UNL1        0.0045
     30 C         138.8289  140.7447  157.6835 C.ar    1  UNL1       -0.0002
     31 C         139.3331  139.9403  156.5222 C.ar    1  UNL1       -0.0043
     32 C         139.9276  138.5824  156.7522 C.ar    1  UNL1       -0.0220
     33 C         140.0178  138.0291  158.1435 C.ar    1  UNL1        0.0002
     34 C         140.4319  137.7779  155.5909 C.3     1  UNL1        0.0264
     35 C         141.8854  137.4181  155.5026 C.3     1  UNL1        0.0071
     36 C         142.3016  135.9772  155.4836 C.3     1  UNL1        0.0175
     37 C         143.7551  135.6175  155.3952 C.3     1  UNL1        0.0686
     38 N         144.7925  136.6987  155.3260 N.3     1  UNL1       -0.2975
     39 C         144.3763  138.1397  155.3450 C.3     1  UNL1        0.0686
     40 C         142.9228  138.4994  155.4333 C.3     1  UNL1        0.0175
     41 H         145.3117  136.5536  154.4601 H       1  UNL1        0.1232
@<TRIPOS>BOND
     1    16    15    1
     2    16    17    1
     3    17    18    1
     4    18    14    1
     5    14     8    1
     6     8     9   ar
     7     9    10   ar
     8    10    11   ar
     9    11    12   ar
    10    12     1    1
    11     1     2   ar
    12     2     3   ar
    13     3    23    1
    14    23    24    1
    15    24    25   am
    16    25    26    2
    17    25    28    1
    18    28    29   ar
    19    29    30   ar
    20    30    31   ar
    21    31    32   ar
    22    32    34    1
    23    34    35    1
    24    35    36    1
    25    36    37    1
    26    37    38    1
    27    38    39    1
    28    39    40    1
    29    32    33   ar
    30     3     4   ar
    31     4     5   ar
    32     5     6   ar
    33     6     7    1
    34    12    13   ar
    35    18    19    1
    36    19    20    1
    37    20    21    1
    38    21    16    1
    39    13     8   ar
    40     6     1   ar
    41    33    28   ar
    42    40    35    1
    43    24    27    1
    44    38    41    1
    45    21    22    1
@<TRIPOS>MOLECULE
*****
 41 45 0 0 0
SMALL
GASTEIGER

@<TRIPOS>ATOM
      1 C         139.0966  140.6794  164.2095 C.ar    1  UNL1        0.0272
      2 C         138.9251  140.0479  162.8598 C.ar    1  UNL1       -0.0004
      3 C         138.6786  138.5726  162.7479 C.ar    1  UNL1       -0.0024
      4 C         138.6036  137.7287  163.9857 C.ar    1  UNL1       -0.0003
      5 C         138.7751  138.3602  165.3354 C.ar    1  UNL1        0.0294
      6 C         139.0216  139.8355  165.4474 C.ar    1  UNL1        0.1401
      7 F         139.1932  140.4670  166.7971 F       1  UNL1       -0.2042
      8 C         140.9554  144.1854  164.1569 C.ar    1  UNL1       -0.0061
      9 C         139.8362  145.1056  164.5452 C.ar    1  UNL1       -0.0029
     10 C         138.4704  144.5503  164.8216 C.ar    1  UNL1       -0.0003
     11 C         138.2239  143.0749  164.7097 C.ar    1  UNL1        0.0001
     12 C         139.3431  142.1548  164.3214 C.ar    1  UNL1        0.0019
     13 C         140.7089  142.7101  164.0450 C.ar    1  UNL1       -0.0028
     14 C         142.3212  144.7407  163.8805 C.3     1  UNL1        0.0992
     15 C         144.7072  142.4709  159.8611 C.3     1  UNL1        0.0186
     16 C         144.5936  142.7112  161.3374 C.3     1  UNL1        0.0703
     17 C         143.5142  143.6058  161.8708 C.3     1  UNL1        0.0882
     18 N         143.4007  143.8461  163.3471 N.3     1  UNL1       -0.2666
     19 C         144.3665  143.1918  164.2899 C.3     1  UNL1        0.0897
     20 C         145.4460  142.2973  163.7565 C.3     1  UNL1        0.0861
     21 N         145.5595  142.0570  162.2802 N.3     1  UNL1       -0.2963
     22 H         145.4736  141.0506  162.1383 H       1  UNL1        0.1233
     23 C         138.5071  137.9411  161.3981 C.3     1  UNL1        0.1166
     24 N         139.6510  137.9223  160.4281 N.am    1  UNL1       -0.2969
     25 C         139.7046  138.9233  159.3122 C.2     1  UNL1        0.2461
     26 O         138.6143  139.9430  159.1664 O.2     1  UNL1       -0.2701
     27 H         140.3666  137.2530  160.5237 H       1  UNL1        0.1501
     28 C         140.8486  138.9045  158.3421 C.ar    1  UNL1        0.0530
     29 C         141.8824  139.9907  158.3804 C.ar    1  UNL1        0.0045
     30 C         143.0263  139.9719  157.4103 C.ar    1  UNL1       -0.0002
     31 C         143.1365  138.8668  156.4019 C.ar    1  UNL1       -0.0043
     32 C         142.1026  137.7806  156.3636 C.ar    1  UNL1       -0.0220
     33 C         140.9587  137.7995  157.3337 C.ar    1  UNL1        0.0002
     34 C         142.2128  136.6756  155.3553 C.3     1  UNL1        0.0264
     35 C         142.3382  135.2526  155.8127 C.3     1  UNL1        0.0071
     36 C         143.2907  134.9009  156.9169 C.3     1  UNL1        0.0175
     37 C         143.4161  133.4779  157.3743 C.3     1  UNL1        0.0686
     38 N         142.5890  132.4066  156.7276 N.3     1  UNL1       -0.2975
     39 C         141.6366  132.7582  155.6235 C.3     1  UNL1        0.0686
     40 C         141.5112  134.1812  155.1661 C.3     1  UNL1        0.0175
     41 H         142.0355  131.9749  157.4677 H       1  UNL1        0.1232
@<TRIPOS>BOND
     1    16    15    1
     2    16    17    1
     3    17    18    1
     4    18    14    1
     5    14     8    1
     6     8     9   ar
     7     9    10   ar
     8    10    11   ar
     9    11    12   ar
    10    12     1    1
    11     1     2   ar
    12     2     3   ar
    13     3    23    1
    14    23    24    1
    15    24    25   am
    16    25    26    2
    17    25    28    1
    18    28    29   ar
    19    29    30   ar
    20    30    31   ar
    21    31    32   ar
    22    32    34    1
    23    34    35    1
    24    35    36    1
    25    36    37    1
    26    37    38    1
    27    38    39    1
    28    39    40    1
    29    32    33   ar
    30     3     4   ar
    31     4     5   ar
    32     5     6   ar
    33     6     7    1
    34    12    13   ar
    35    18    19    1
    36    19    20    1
    37    20    21    1
    38    21    16    1
    39    13     8   ar
    40     6     1   ar
    41    33    28   ar
    42    40    35    1
    43    24    27    1
    44    38    41    1
    45    21    22    1
@<TRIPOS>MOLECULE
*****
 41 45 0 0 0
SMALL
GASTEIGER

@<TRIPOS>ATOM
      1 C         141.3305  142.7318  159.7064 C.ar    1  UNL1        0.0272
      2 C         140.3996  142.8636  160.8752 C.ar    1  UNL1       -0.0004
      3 C         139.8556  144.2095  161.2526 C.ar    1  UNL1       -0.0024
      4 C         140.2424  145.4236  160.4613 C.ar    1  UNL1       -0.0003
      5 C         141.1733  145.2918  159.2925 C.ar    1  UNL1        0.0294
      6 C         141.7174  143.9459  158.9151 C.ar    1  UNL1        0.1401
      7 F         142.6483  143.8141  157.7463 F       1  UNL1       -0.2042
      8 C         142.9317  139.1136  160.0142 C.ar    1  UNL1       -0.0061
      9 C         142.9627  138.6939  158.5743 C.ar    1  UNL1       -0.0029
     10 C         142.4497  139.6202  157.5119 C.ar    1  UNL1       -0.0003
     11 C         141.9056  140.9662  157.8893 C.ar    1  UNL1        0.0001
     12 C         141.8746  141.3858  159.3291 C.ar    1  UNL1        0.0019
     13 C         142.3876  140.4595  160.3915 C.ar    1  UNL1       -0.0028
     14 C         143.4447  138.1872  161.0766 C.3     1  UNL1        0.0992
     15 C         143.3121  139.0136  166.2049 C.3     1  UNL1        0.0186
     16 C         142.6630  138.4972  164.9551 C.3     1  UNL1        0.0703
     17 C         143.3784  138.6004  163.6408 C.3     1  UNL1        0.0882
     18 N         142.7293  138.0840  162.3910 N.3     1  UNL1       -0.2666
     19 C         141.3648  137.4644  162.4555 C.3     1  UNL1        0.0897
     20 C         140.6494  137.3612  163.7699 C.3     1  UNL1        0.0861
     21 N         141.2985  137.8777  165.0197 N.3     1  UNL1       -0.2963
     22 H         141.3629  137.0903  165.6649 H       1  UNL1        0.1233
     23 C         138.9246  144.3414  162.4214 C.3     1  UNL1        0.1166
     24 N         138.6580  143.1589  163.3049 N.am    1  UNL1       -0.2969
     25 C         139.6060  142.8260  164.4187 C.2     1  UNL1        0.2461
     26 O         140.8206  143.6755  164.6490 O.2     1  UNL1       -0.2701
     27 H         137.8608  142.6013  163.1538 H       1  UNL1        0.1501
     28 C         139.3393  141.6435  165.3023 C.ar    1  UNL1        0.0530
     29 C         138.2728  140.6559  164.9320 C.ar    1  UNL1        0.0045
     30 C         138.0061  139.4734  165.8156 C.ar    1  UNL1       -0.0002
     31 C         138.8060  139.2785  167.0694 C.ar    1  UNL1       -0.0043
     32 C         139.8726  140.2662  167.4397 C.ar    1  UNL1       -0.0220
     33 C         140.1392  141.4486  166.5562 C.ar    1  UNL1        0.0002
     34 C         140.6725  140.0713  168.6936 C.3     1  UNL1        0.0264
     35 C         141.4354  141.2206  169.2827 C.3     1  UNL1        0.0071
     36 C         142.9347  141.1876  169.3152 C.3     1  UNL1        0.0175
     37 C         143.6975  142.3369  169.9043 C.3     1  UNL1        0.0686
     38 N         142.9611  143.5192  170.4610 N.3     1  UNL1       -0.2975
     39 C         141.4619  143.5522  170.4285 C.3     1  UNL1        0.0686
     40 C         140.6990  142.4029  169.8394 C.3     1  UNL1        0.0175
     41 H         143.2849  144.3374  169.9450 H       1  UNL1        0.1232
@<TRIPOS>BOND
     1    16    15    1
     2    16    17    1
     3    17    18    1
     4    18    14    1
     5    14     8    1
     6     8     9   ar
     7     9    10   ar
     8    10    11   ar
     9    11    12   ar
    10    12     1    1
    11     1     2   ar
    12     2     3   ar
    13     3    23    1
    14    23    24    1
    15    24    25   am
    16    25    26    2
    17    25    28    1
    18    28    29   ar
    19    29    30   ar
    20    30    31   ar
    21    31    32   ar
    22    32    34    1
    23    34    35    1
    24    35    36    1
    25    36    37    1
    26    37    38    1
    27    38    39    1
    28    39    40    1
    29    32    33   ar
    30     3     4   ar
    31     4     5   ar
    32     5     6   ar
    33     6     7    1
    34    12    13   ar
    35    18    19    1
    36    19    20    1
    37    20    21    1
    38    21    16    1
    39    13     8   ar
    40     6     1   ar
    41    33    28   ar
    42    40    35    1
    43    24    27    1
    44    38    41    1
    45    21    22    1
@<TRIPOS>MOLECULE
*****
 41 45 0 0 0
SMALL
GASTEIGER

@<TRIPOS>ATOM
      1 C         143.2141  143.4368  161.9627 C.ar    1  UNL1        0.0272
      2 C         143.0517  143.3735  163.4526 C.ar    1  UNL1       -0.0004
      3 C         144.0870  142.6844  164.2912 C.ar    1  UNL1       -0.0024
      4 C         145.2846  142.0588  163.6400 C.ar    1  UNL1       -0.0003
      5 C         145.4470  142.1221  162.1502 C.ar    1  UNL1        0.0294
      6 C         144.4117  142.8111  161.3115 C.ar    1  UNL1        0.1401
      7 F         144.5741  142.8745  159.8217 F       1  UNL1       -0.2042
      8 C         141.1134  144.5966  158.8017 C.ar    1  UNL1       -0.0061
      9 C         140.1080  145.5039  159.4468 C.ar    1  UNL1       -0.0029
     10 C         140.1380  145.7222  160.9305 C.ar    1  UNL1       -0.0003
     11 C         141.1734  145.0332  161.7691 C.ar    1  UNL1        0.0001
     12 C         142.1787  144.1259  161.1241 C.ar    1  UNL1        0.0019
     13 C         142.1487  143.9076  159.6403 C.ar    1  UNL1       -0.0028
     14 C         141.0833  144.3783  157.3180 C.3     1  UNL1        0.0992
     15 C         136.8286  143.9421  154.3672 C.3     1  UNL1        0.0186
     16 C         137.8799  144.7953  155.0127 C.3     1  UNL1        0.0703
     17 C         138.9559  144.1602  155.8426 C.3     1  UNL1        0.0882
     18 N         140.0073  145.0135  156.4881 N.3     1  UNL1       -0.2666
     19 C         139.9826  146.5019  156.3037 C.3     1  UNL1        0.0897
     20 C         138.9065  147.1370  155.4738 C.3     1  UNL1        0.0861
     21 N         137.8552  146.2837  154.8283 N.3     1  UNL1       -0.2963
     22 H         137.9106  146.4571  153.8247 H       1  UNL1        0.1233
     23 C         143.9246  142.6211  165.7811 C.3     1  UNL1        0.1166
     24 N         142.6880  142.0152  166.3756 N.am    1  UNL1       -0.2969
     25 C         142.4815  142.0377  167.8612 C.2     1  UNL1        0.2461
     26 O         143.5115  142.6663  168.7521 O.2     1  UNL1       -0.2701
     27 H         142.0119  141.6026  165.7909 H       1  UNL1        0.1501
     28 C         141.2447  141.4318  168.4557 C.ar    1  UNL1        0.0530
     29 C         140.8719  141.7311  169.8774 C.ar    1  UNL1        0.0045
     30 C         139.6352  141.1251  170.4720 C.ar    1  UNL1       -0.0002
     31 C         138.7714  140.2198  169.6448 C.ar    1  UNL1       -0.0043
     32 C         139.1443  139.9205  168.2230 C.ar    1  UNL1       -0.0220
     33 C         140.3810  140.5265  167.6285 C.ar    1  UNL1        0.0002
     34 C         138.2805  139.0152  167.3958 C.3     1  UNL1        0.0264
     35 C         138.4075  139.0172  165.9011 C.3     1  UNL1        0.0071
     36 C         138.0852  140.2582  165.1227 C.3     1  UNL1        0.0175
     37 C         138.2121  140.2601  163.6281 C.3     1  UNL1        0.0686
     38 N         138.6613  139.0210  162.9119 N.3     1  UNL1       -0.2975
     39 C         138.9836  137.7800  163.6903 C.3     1  UNL1        0.0686
     40 C         138.8567  137.7781  165.1849 C.3     1  UNL1        0.0175
     41 H         139.5033  139.2699  162.3927 H       1  UNL1        0.1232
@<TRIPOS>BOND
     1    16    15    1
     2    16    17    1
     3    17    18    1
     4    18    14    1
     5    14     8    1
     6     8     9   ar
     7     9    10   ar
     8    10    11   ar
     9    11    12   ar
    10    12     1    1
    11     1     2   ar
    12     2     3   ar
    13     3    23    1
    14    23    24    1
    15    24    25   am
    16    25    26    2
    17    25    28    1
    18    28    29   ar
    19    29    30   ar
    20    30    31   ar
    21    31    32   ar
    22    32    34    1
    23    34    35    1
    24    35    36    1
    25    36    37    1
    26    37    38    1
    27    38    39    1
    28    39    40    1
    29    32    33   ar
    30     3     4   ar
    31     4     5   ar
    32     5     6   ar
    33     6     7    1
    34    12    13   ar
    35    18    19    1
    36    19    20    1
    37    20    21    1
    38    21    16    1
    39    13     8   ar
    40     6     1   ar
    41    33    28   ar
    42    40    35    1
    43    24    27    1
    44    38    41    1
    45    21    22    1
