@<TRIPOS>MOLECULE
*****
 44 48 0 0 0
SMALL
GASTEIGER

@<TRIPOS>ATOM
      1 C         142.7955  137.7604  157.3192 C.ar    1  UNL1        0.1534
      2 N         142.3213  137.6241  158.7358 N.ar    1  UNL1       -0.2279
      3 C         142.7375  138.8554  159.4844 C.ar    1  UNL1        0.1036
      4 C         143.4689  139.7528  158.5306 C.ar    1  UNL1        0.1142
      5 C         144.1069  141.0988  158.7077 C.ar    1  UNL1        0.1432
      6 N         144.0711  141.7755  160.0459 N.pl3   1  UNL1       -0.3414
      7 N         144.7807  141.7679  157.5466 N.ar    1  UNL1       -0.2265
      8 C         144.8166  141.0911  156.2084 C.ar    1  UNL1        0.1193
      9 C         144.1786  139.7452  156.0313 C.ar    1  UNL1        0.1021
     10 N         143.5048  139.0761  157.1924 N.ar    1  UNL1       -0.2865
     11 H         143.6288  141.3363  160.8079 H       1  UNL1        0.1438
     12 H         144.4898  142.6589  160.1621 H       1  UNL1        0.1438
     13 C         142.4114  132.8207  155.7535 C.2     1  UNL1        0.2560
     14 O         142.6192  132.3572  157.1649 O.2     1  UNL1       -0.2721
     15 N         142.4035  134.2874  155.4392 N.am    1  UNL1       -0.2720
     16 C         142.1956  134.7509  154.0279 C.3     1  UNL1        0.1256
     17 C         142.1878  136.2176  153.7136 C.3     1  UNL1        0.1641
     18 O         142.3877  137.2207  154.8108 O.3     1  UNL1       -0.3451
     19 C         142.5955  136.7573  156.2221 C.3     1  UNL1        0.1913
     20 C         142.6034  135.2905  156.5363 C.3     1  UNL1        0.1308
     21 C         142.2114  131.8176  154.6564 C.3     1  UNL1        0.2272
     22 C         144.3683  130.3726  154.7582 C.3     1  UNL1        0.1748
     23 O         143.3989  131.2061  153.9736 O.3     1  UNL1       -0.3417
     24 C         142.4694  139.1396  160.9326 C.ar    1  UNL1        0.0467
     25 C         141.3626  140.0744  161.3212 C.ar    1  UNL1        0.0039
     26 C         141.0945  140.3585  162.7694 C.ar    1  UNL1        0.0047
     27 C         141.9332  139.7078  163.8292 C.ar    1  UNL1        0.0559
     28 C         143.0401  138.7730  163.4407 C.ar    1  UNL1        0.0342
     29 C         143.3082  138.4889  161.9924 C.ar    1  UNL1        0.1417
     30 F         144.4151  137.5540  161.6040 F       1  UNL1       -0.2041
     31 C         141.6651  139.9920  165.2774 C.2     1  UNL1        0.2506
     32 O         140.2545  140.0257  165.7864 O.2     1  UNL1       -0.2698
     33 N         142.8076  140.2424  166.2166 N.am    1  UNL1       -0.2658
     34 H         143.7334  140.2202  165.8825 H       1  UNL1        0.1566
     35 C         142.5393  140.5265  167.6649 C.ar    1  UNL1        0.1343
     36 C         141.9931  141.8608  168.0786 C.ar    1  UNL1        0.0383
     37 C         141.7248  142.1450  169.5268 C.ar    1  UNL1        0.0757
     38 C         142.0029  141.0949  170.5612 C.ar    1  UNL1        0.0246
     39 C         142.5492  139.7606  170.1474 C.ar    1  UNL1        0.1003
     40 N         142.8174  139.4764  168.6992 N.ar    1  UNL1       -0.2290
     41 C         141.1786  143.4793  169.9406 C.3     1  UNL1        0.4187
     42 F         140.6323  144.8136  170.3544 F       1  UNL1       -0.1659
     43 F         139.8104  143.0582  169.4924 F       1  UNL1       -0.1659
     44 F         142.5467  143.9004  170.3889 F       1  UNL1       -0.1659
@<TRIPOS>BOND
     1    22    23    1
     2    23    21    1
     3    21    13    1
     4    13    14    2
     5    13    15   am
     6    15    16    1
     7    16    17    1
     8    17    18    1
     9    18    19    1
    10    19     1    1
    11     1     2   ar
    12     2     3   ar
    13     3    24    1
    14    24    25   ar
    15    25    26   ar
    16    26    27   ar
    17    27    31    1
    18    31    32    2
    19    31    33   am
    20    33    35    1
    21    35    36   ar
    22    36    37   ar
    23    37    41    1
    24    41    42    1
    25    41    43    1
    26    41    44    1
    27    37    38   ar
    28    38    39   ar
    29    39    40   ar
    30    27    28   ar
    31    28    29   ar
    32    29    30    1
    33     3     4   ar
    34     4     5   ar
    35     5     6    1
    36     5     7   ar
    37     7     8   ar
    38     8     9   ar
    39     9    10   ar
    40    19    20    1
    41    20    15    1
    42    10     1   ar
    43    29    24   ar
    44    10     4   ar
    45    40    35   ar
    46    33    34    1
    47     6    11    1
    48     6    12    1
@<TRIPOS>MOLECULE
*****
 44 48 0 0 0
SMALL
GASTEIGER

@<TRIPOS>ATOM
      1 C         139.5043  144.6659  157.0640 C.ar    1  UNL1        0.1534
      2 N         139.9920  144.6781  158.4824 N.ar    1  UNL1       -0.2279
      3 C         139.5593  143.3973  159.1323 C.ar    1  UNL1        0.1036
      4 C         138.8040  142.5936  158.1156 C.ar    1  UNL1        0.1142
      5 C         138.1429  141.2492  158.1886 C.ar    1  UNL1        0.1432
      6 N         138.1769  140.4652  159.4670 N.pl3   1  UNL1       -0.3414
      7 N         137.4477  140.6889  156.9834 N.ar    1  UNL1       -0.2265
      8 C         137.4138  141.4729  155.7050 C.ar    1  UNL1        0.1193
      9 C         138.0749  142.8174  155.6320 C.ar    1  UNL1        0.1021
     10 N         138.7700  143.3777  156.8373 N.ar    1  UNL1       -0.2865
     11 H         138.6331  140.8330  160.2580 H       1  UNL1        0.1438
     12 H         137.7429  139.5828  159.5149 H       1  UNL1        0.1438
     13 C         138.8907  149.6034  155.5658 C.2     1  UNL1        0.2560
     14 O         138.1646  149.9011  156.8442 O.2     1  UNL1       -0.2721
     15 N         139.4071  148.2203  155.3011 N.am    1  UNL1       -0.2720
     16 C         140.1331  147.9226  154.0228 C.3     1  UNL1        0.1256
     17 C         140.6495  146.5394  153.7582 C.3     1  UNL1        0.1641
     18 O         140.4399  145.4538  154.7719 O.3     1  UNL1       -0.3451
     19 C         139.7139  145.7514  156.0503 C.3     1  UNL1        0.1913
     20 C         139.1975  147.1347  156.3149 C.3     1  UNL1        0.1308
     21 C         139.1003  150.6889  154.5520 C.3     1  UNL1        0.2272
     22 C         138.5891  153.1992  154.9850 C.3     1  UNL1        0.1748
     23 O         139.5526  152.0496  154.9928 O.3     1  UNL1       -0.3417
     24 C         139.8335  142.9914  160.5501 C.ar    1  UNL1        0.0467
     25 C         138.8948  143.4062  161.6440 C.ar    1  UNL1        0.0039
     26 C         139.1691  143.0003  163.0617 C.ar    1  UNL1        0.0047
     27 C         140.3822  142.1796  163.3856 C.ar    1  UNL1        0.0559
     28 C         141.3210  141.7649  162.2917 C.ar    1  UNL1        0.0342
     29 C         141.0467  142.1707  160.8740 C.ar    1  UNL1        0.1417
     30 F         141.9855  141.7559  159.7801 F       1  UNL1       -0.2041
     31 C         140.6565  141.7738  164.8034 C.2     1  UNL1        0.2506
     32 O         139.5165  141.5037  165.7400 O.2     1  UNL1       -0.2698
     33 N         142.0708  141.6380  165.2844 N.am    1  UNL1       -0.2658
     34 H         142.8190  141.8152  164.6696 H       1  UNL1        0.1566
     35 C         142.3450  141.2321  166.7022 C.ar    1  UNL1        0.1343
     36 C         142.7006  142.2708  167.7242 C.ar    1  UNL1        0.0383
     37 C         142.9748  141.8651  169.1420 C.ar    1  UNL1        0.0757
     38 C         142.8934  140.4205  169.5377 C.ar    1  UNL1        0.0246
     39 C         142.5378  139.3818  168.5157 C.ar    1  UNL1        0.1003
     40 N         142.2636  139.7875  167.0979 N.ar    1  UNL1       -0.2290
     41 C         143.3304  142.9038  170.1641 C.3     1  UNL1        0.4187
     42 F         143.6859  143.9426  171.1861 F       1  UNL1       -0.1659
     43 F         144.7640  142.4658  170.1104 F       1  UNL1       -0.1659
     44 F         141.8967  143.3418  170.2177 F       1  UNL1       -0.1659
@<TRIPOS>BOND
     1    22    23    1
     2    23    21    1
     3    21    13    1
     4    13    14    2
     5    13    15   am
     6    15    16    1
     7    16    17    1
     8    17    18    1
     9    18    19    1
    10    19     1    1
    11     1     2   ar
    12     2     3   ar
    13     3    24    1
    14    24    25   ar
    15    25    26   ar
    16    26    27   ar
    17    27    31    1
    18    31    32    2
    19    31    33   am
    20    33    35    1
    21    35    36   ar
    22    36    37   ar
    23    37    41    1
    24    41    42    1
    25    41    43    1
    26    41    44    1
    27    37    38   ar
    28    38    39   ar
    29    39    40   ar
    30    27    28   ar
    31    28    29   ar
    32    29    30    1
    33     3     4   ar
    34     4     5   ar
    35     5     6    1
    36     5     7   ar
    37     7     8   ar
    38     8     9   ar
    39     9    10   ar
    40    19    20    1
    41    20    15    1
    42    10     1   ar
    43    29    24   ar
    44    10     4   ar
    45    40    35   ar
    46    33    34    1
    47     6    11    1
    48     6    12    1
@<TRIPOS>MOLECULE
*****
 44 48 0 0 0
SMALL
GASTEIGER

@<TRIPOS>ATOM
      1 C         141.2511  140.7057  164.5131 C.ar    1  UNL1        0.1534
      2 N         141.5387  141.9289  163.6939 N.ar    1  UNL1       -0.2279
      3 C         140.9385  141.7276  162.3340 C.ar    1  UNL1        0.1036
      4 C         140.2799  140.3800  162.3128 C.ar    1  UNL1        0.1142
      5 C         139.5293  139.6465  161.2412 C.ar    1  UNL1        0.1432
      6 N         139.3361  140.2780  159.8944 N.pl3   1  UNL1       -0.3414
      7 N         138.9719  138.2814  161.5163 N.ar    1  UNL1       -0.2265
      8 C         139.1651  137.6498  162.8631 C.ar    1  UNL1        0.1193
      9 C         139.9158  138.3834  163.9347 C.ar    1  UNL1        0.1021
     10 N         140.4731  139.7485  163.6596 N.ar    1  UNL1       -0.2865
     11 H         139.7020  141.1740  159.7138 H       1  UNL1        0.1438
     12 H         138.8434  139.7965  159.1910 H       1  UNL1        0.1438
     13 C         141.2204  142.1702  169.4985 C.2     1  UNL1        0.2560
     14 O         140.3709  143.3549  169.1453 O.2     1  UNL1       -0.2721
     15 N         141.6529  141.2117  168.4288 N.am    1  UNL1       -0.2720
     16 C         142.5024  140.0271  168.7821 C.3     1  UNL1        0.1256
     17 C         142.9349  139.0686  167.7123 C.3     1  UNL1        0.1641
     18 O         142.5177  139.2949  166.2893 O.3     1  UNL1       -0.3451
     19 C         141.6682  140.4795  165.9361 C.3     1  UNL1        0.1913
     20 C         141.2358  141.4380  167.0059 C.3     1  UNL1        0.1308
     21 C         141.6375  141.9440  170.9215 C.3     1  UNL1        0.2272
     22 C         139.9727  139.9735  171.2310 C.3     1  UNL1        0.1748
     23 O         140.8065  141.0740  171.8174 O.3     1  UNL1       -0.3417
     24 C         140.9881  142.7026  161.1952 C.ar    1  UNL1        0.0467
     25 C         142.0916  142.6180  160.1828 C.ar    1  UNL1        0.0039
     26 C         142.1412  143.5930  159.0441 C.ar    1  UNL1        0.0047
     27 C         141.0872  144.6528  158.9177 C.ar    1  UNL1        0.0559
     28 C         139.9836  144.7375  159.9301 C.ar    1  UNL1        0.0342
     29 C         139.9340  143.7625  161.0689 C.ar    1  UNL1        0.1417
     30 F         138.8305  143.8472  162.0813 F       1  UNL1       -0.2041
     31 C         141.1368  145.6279  157.7789 C.2     1  UNL1        0.2506
     32 O         142.4278  146.3063  157.4282 O.2     1  UNL1       -0.2698
     33 N         139.8954  145.9245  156.9909 N.am    1  UNL1       -0.2658
     34 H         139.0481  145.4792  157.2210 H       1  UNL1        0.1566
     35 C         139.9451  146.8995  155.8521 C.ar    1  UNL1        0.1343
     36 C         139.2825  148.2389  155.9822 C.ar    1  UNL1        0.0383
     37 C         139.3321  149.2141  154.8435 C.ar    1  UNL1        0.0757
     38 C         140.0444  148.8497  153.5747 C.ar    1  UNL1        0.0246
     39 C         140.7070  147.5103  153.4446 C.ar    1  UNL1        0.1003
     40 N         140.6574  146.5352  154.5833 N.ar    1  UNL1       -0.2290
     41 C         138.6695  150.5535  154.9737 C.3     1  UNL1        0.4187
     42 F         138.0069  151.8929  155.1038 F       1  UNL1       -0.1659
     43 F         139.1439  150.9217  153.5991 F       1  UNL1       -0.1659
     44 F         138.1952  150.1853  156.3482 F       1  UNL1       -0.1659
@<TRIPOS>BOND
     1    22    23    1
     2    23    21    1
     3    21    13    1
     4    13    14    2
     5    13    15   am
     6    15    16    1
     7    16    17    1
     8    17    18    1
     9    18    19    1
    10    19     1    1
    11     1     2   ar
    12     2     3   ar
    13     3    24    1
    14    24    25   ar
    15    25    26   ar
    16    26    27   ar
    17    27    31    1
    18    31    32    2
    19    31    33   am
    20    33    35    1
    21    35    36   ar
    22    36    37   ar
    23    37    41    1
    24    41    42    1
    25    41    43    1
    26    41    44    1
    27    37    38   ar
    28    38    39   ar
    29    39    40   ar
    30    27    28   ar
    31    28    29   ar
    32    29    30    1
    33     3     4   ar
    34     4     5   ar
    35     5     6    1
    36     5     7   ar
    37     7     8   ar
    38     8     9   ar
    39     9    10   ar
    40    19    20    1
    41    20    15    1
    42    10     1   ar
    43    29    24   ar
    44    10     4   ar
    45    40    35   ar
    46    33    34    1
    47     6    11    1
    48     6    12    1
@<TRIPOS>MOLECULE
*****
 44 48 0 0 0
SMALL
GASTEIGER

@<TRIPOS>ATOM
      1 C         142.7731  136.9068  157.7539 C.ar    1  UNL1        0.1534
      2 N         142.7892  136.9206  159.2537 N.ar    1  UNL1       -0.2279
      3 C         142.7725  138.3513  159.7042 C.ar    1  UNL1        0.1036
      4 C         142.7460  139.2216  158.4828 C.ar    1  UNL1        0.1142
      5 C         142.7217  140.7117  158.3125 C.ar    1  UNL1        0.1432
      6 N         142.7213  141.6045  159.5178 N.pl3   1  UNL1       -0.3414
      7 N         142.6977  141.3090  156.9368 N.ar    1  UNL1       -0.2265
      8 C         142.6980  140.4162  155.7314 C.ar    1  UNL1        0.1193
      9 C         142.7224  138.9261  155.9017 C.ar    1  UNL1        0.1021
     10 N         142.7464  138.3288  157.2774 N.ar    1  UNL1       -0.2865
     11 H         142.7371  141.2124  160.4208 H       1  UNL1        0.1438
     12 H         142.7053  142.5825  159.4060 H       1  UNL1        0.1438
     13 C         144.6583  132.1976  156.6273 C.2     1  UNL1        0.2560
     14 O         145.5829  132.2859  157.8051 O.2     1  UNL1       -0.2721
     15 N         143.7247  133.3306  156.3200 N.am    1  UNL1       -0.2720
     16 C         142.8000  133.2422  155.1422 C.3     1  UNL1        0.1256
     17 C         141.8664  134.3754  154.8350 C.3     1  UNL1        0.1641
     18 O         141.8574  135.5968  155.7056 O.3     1  UNL1       -0.3451
     19 C         142.7820  135.6853  156.8833 C.3     1  UNL1        0.1913
     20 C         143.7157  134.5521  157.1906 C.3     1  UNL1        0.1308
     21 C         144.6673  130.9761  155.7567 C.3     1  UNL1        0.2272
     22 C         142.7186  129.4659  154.9366 C.3     1  UNL1        0.1748
     23 O         143.6876  129.8683  156.0086 O.3     1  UNL1       -0.3417
     24 C         142.7808  138.8280  161.1264 C.ar    1  UNL1        0.0467
     25 C         144.0830  139.1066  161.8165 C.ar    1  UNL1        0.0039
     26 C         144.0913  139.5833  163.2387 C.ar    1  UNL1        0.0047
     27 C         142.7972  139.7814  163.9709 C.ar    1  UNL1        0.0559
     28 C         141.4949  139.5028  163.2808 C.ar    1  UNL1        0.0342
     29 C         141.4866  139.0261  161.8586 C.ar    1  UNL1        0.1417
     30 F         140.1842  138.7475  161.1686 F       1  UNL1       -0.2041
     31 C         142.8055  140.2581  165.3931 C.2     1  UNL1        0.2506
     32 O         143.5762  141.4895  165.7668 O.2     1  UNL1       -0.2698
     33 N         142.0432  139.5033  166.4416 N.am    1  UNL1       -0.2658
     34 H         141.5374  138.6951  166.1963 H       1  UNL1        0.1566
     35 C         142.0516  139.9801  167.8638 C.ar    1  UNL1        0.1343
     36 C         141.3031  141.2237  168.2422 C.ar    1  UNL1        0.0383
     37 C         141.3113  141.7005  169.6644 C.ar    1  UNL1        0.0757
     38 C         142.0682  140.9337  170.7080 C.ar    1  UNL1        0.0246
     39 C         142.8167  139.6902  170.3296 C.ar    1  UNL1        0.1003
     40 N         142.8084  139.2133  168.9074 N.ar    1  UNL1       -0.2290
     41 C         140.5628  142.9441  170.0429 C.3     1  UNL1        0.4187
     42 F         139.8143  144.1877  170.4213 F       1  UNL1       -0.1659
     43 F         141.8332  143.7365  169.9517 F       1  UNL1       -0.1659
     44 F         139.2925  142.1517  170.1341 F       1  UNL1       -0.1659
@<TRIPOS>BOND
     1    22    23    1
     2    23    21    1
     3    21    13    1
     4    13    14    2
     5    13    15   am
     6    15    16    1
     7    16    17    1
     8    17    18    1
     9    18    19    1
    10    19     1    1
    11     1     2   ar
    12     2     3   ar
    13     3    24    1
    14    24    25   ar
    15    25    26   ar
    16    26    27   ar
    17    27    31    1
    18    31    32    2
    19    31    33   am
    20    33    35    1
    21    35    36   ar
    22    36    37   ar
    23    37    41    1
    24    41    42    1
    25    41    43    1
    26    41    44    1
    27    37    38   ar
    28    38    39   ar
    29    39    40   ar
    30    27    28   ar
    31    28    29   ar
    32    29    30    1
    33     3     4   ar
    34     4     5   ar
    35     5     6    1
    36     5     7   ar
    37     7     8   ar
    38     8     9   ar
    39     9    10   ar
    40    19    20    1
    41    20    15    1
    42    10     1   ar
    43    29    24   ar
    44    10     4   ar
    45    40    35   ar
    46    33    34    1
    47     6    11    1
    48     6    12    1
@<TRIPOS>MOLECULE
*****
 44 48 0 0 0
SMALL
GASTEIGER

@<TRIPOS>ATOM
      1 C         141.0382  141.6584  164.4157 C.ar    1  UNL1        0.1534
      2 N         141.2206  140.5157  163.4613 N.ar    1  UNL1       -0.2279
      3 C         140.6395  140.9194  162.1386 C.ar    1  UNL1        0.1036
      4 C         140.0980  142.3115  162.2756 C.ar    1  UNL1        0.1142
      5 C         139.4125  143.2223  161.3007 C.ar    1  UNL1        0.1432
      6 N         139.1661  142.7655  159.8933 N.pl3   1  UNL1       -0.3414
      7 N         138.9733  144.5897  161.7331 N.ar    1  UNL1       -0.2265
      8 C         139.2197  145.0465  163.1405 C.ar    1  UNL1        0.1193
      9 C         139.9052  144.1358  164.1154 C.ar    1  UNL1        0.1021
     10 N         140.3444  142.7683  163.6830 N.ar    1  UNL1       -0.2865
     11 H         139.4544  141.8679  159.6095 H       1  UNL1        0.1438
     12 H         138.7161  143.3632  159.2534 H       1  UNL1        0.1438
     13 C         140.2010  140.4360  169.3962 C.2     1  UNL1        0.2560
     14 O         138.9125  139.7688  169.0158 O.2     1  UNL1       -0.2721
     15 N         141.0546  141.0752  168.3413 N.am    1  UNL1       -0.2720
     16 C         142.3431  141.7423  168.7216 C.3     1  UNL1        0.1256
     17 C         143.1966  142.3814  167.6667 C.3     1  UNL1        0.1641
     18 O         142.7616  142.3535  166.2314 O.3     1  UNL1       -0.3451
     19 C         141.4732  141.6864  165.8510 C.3     1  UNL1        0.1913
     20 C         140.6196  141.0472  166.9060 C.3     1  UNL1        0.1308
     21 C         140.6360  140.4639  170.8314 C.3     1  UNL1        0.2272
     22 C         139.6935  142.8733  171.0705 C.3     1  UNL1        0.1748
     23 O         140.3683  141.6767  171.6728 O.3     1  UNL1       -0.3417
     24 C         140.6059  140.0785  160.8969 C.ar    1  UNL1        0.0467
     25 C         141.7744  140.0824  159.9565 C.ar    1  UNL1        0.0039
     26 C         141.7407  139.2416  158.7148 C.ar    1  UNL1        0.0047
     27 C         140.5385  138.3968  158.4135 C.ar    1  UNL1        0.0559
     28 C         139.3699  138.3928  159.3539 C.ar    1  UNL1        0.0342
     29 C         139.4035  139.2337  160.5956 C.ar    1  UNL1        0.1417
     30 F         138.2349  139.2297  161.5360 F       1  UNL1       -0.2041
     31 C         140.5048  137.5559  157.1718 C.2     1  UNL1        0.2506
     32 O         139.2101  137.3438  156.4446 O.2     1  UNL1       -0.2698
     33 N         141.7658  136.9272  156.6573 N.am    1  UNL1       -0.2658
     34 H         142.6155  137.0665  157.1346 H       1  UNL1        0.1566
     35 C         141.7320  136.0864  155.4156 C.ar    1  UNL1        0.1343
     36 C         141.8511  134.5945  155.5166 C.ar    1  UNL1        0.0383
     37 C         141.8173  133.7536  154.2750 C.ar    1  UNL1        0.0757
     38 C         141.6645  134.4046  152.9323 C.ar    1  UNL1        0.0246
     39 C         141.5455  135.8964  152.8312 C.ar    1  UNL1        0.1003
     40 N         141.5792  136.7374  154.0729 N.ar    1  UNL1       -0.2290
     41 C         141.9364  132.2618  154.3760 C.3     1  UNL1        0.4187
     42 F         142.0554  130.7699  154.4771 F       1  UNL1       -0.1659
     43 F         143.2914  132.3266  153.7360 F       1  UNL1       -0.1659
     44 F         140.5813  132.1970  155.0160 F       1  UNL1       -0.1659
@<TRIPOS>BOND
     1    22    23    1
     2    23    21    1
     3    21    13    1
     4    13    14    2
     5    13    15   am
     6    15    16    1
     7    16    17    1
     8    17    18    1
     9    18    19    1
    10    19     1    1
    11     1     2   ar
    12     2     3   ar
    13     3    24    1
    14    24    25   ar
    15    25    26   ar
    16    26    27   ar
    17    27    31    1
    18    31    32    2
    19    31    33   am
    20    33    35    1
    21    35    36   ar
    22    36    37   ar
    23    37    41    1
    24    41    42    1
    25    41    43    1
    26    41    44    1
    27    37    38   ar
    28    38    39   ar
    29    39    40   ar
    30    27    28   ar
    31    28    29   ar
    32    29    30    1
    33     3     4   ar
    34     4     5   ar
    35     5     6    1
    36     5     7   ar
    37     7     8   ar
    38     8     9   ar
    39     9    10   ar
    40    19    20    1
    41    20    15    1
    42    10     1   ar
    43    29    24   ar
    44    10     4   ar
    45    40    35   ar
    46    33    34    1
    47     6    11    1
    48     6    12    1
@<TRIPOS>MOLECULE
*****
 44 48 0 0 0
SMALL
GASTEIGER

@<TRIPOS>ATOM
      1 C         139.3370  144.7386  156.4365 C.ar    1  UNL1        0.1534
      2 N         139.7933  144.5346  157.8508 N.ar    1  UNL1       -0.2279
      3 C         139.2862  143.2009  158.3135 C.ar    1  UNL1        0.1036
      4 C         138.5166  142.5806  157.1852 C.ar    1  UNL1        0.1142
      5 C         137.7913  141.2732  157.0643 C.ar    1  UNL1        0.1432
      6 N         137.7599  140.3229  158.2244 N.pl3   1  UNL1       -0.3414
      7 N         137.0975  140.9162  155.7833 N.ar    1  UNL1       -0.2265
      8 C         137.1289  141.8666  154.6232 C.ar    1  UNL1        0.1193
      9 C         137.8542  143.1739  154.7441 C.ar    1  UNL1        0.1021
     10 N         138.5481  143.5310  156.0251 N.ar    1  UNL1       -0.2865
     11 H         138.2153  140.5572  159.0652 H       1  UNL1        0.1438
     12 H         137.2839  139.4648  158.1450 H       1  UNL1        0.1438
     13 C         138.8359  149.8293  155.5235 C.2     1  UNL1        0.2560
     14 O         138.0192  149.9731  156.7735 O.2     1  UNL1       -0.2721
     15 N         139.3695  148.4848  155.1268 N.am    1  UNL1       -0.2720
     16 C         140.1862  148.3410  153.8768 C.3     1  UNL1        0.1256
     17 C         140.7198  146.9965  153.4801 C.3     1  UNL1        0.1641
     18 O         140.4368  145.7957  154.3333 O.3     1  UNL1       -0.3451
     19 C         139.6201  145.9394  155.5832 C.3     1  UNL1        0.1913
     20 C         139.0865  147.2840  155.9800 C.3     1  UNL1        0.1308
     21 C         139.1189  151.0301  154.6703 C.3     1  UNL1        0.2272
     22 C         138.4004  153.5203  154.8511 C.3     1  UNL1        0.1748
     23 O         139.2663  152.3821  155.3033 O.3     1  UNL1       -0.3417
     24 C         139.5095  142.5940  159.6669 C.ar    1  UNL1        0.0467
     25 C         138.5393  142.8628  160.7788 C.ar    1  UNL1        0.0039
     26 C         138.7626  142.2559  162.1323 C.ar    1  UNL1        0.0047
     27 C         139.9562  141.3801  162.3738 C.ar    1  UNL1        0.0559
     28 C         140.9265  141.1112  161.2619 C.ar    1  UNL1        0.0342
     29 C         140.7032  141.7181  159.9085 C.ar    1  UNL1        0.1417
     30 F         141.6734  141.4493  158.7966 F       1  UNL1       -0.2041
     31 C         140.1795  140.7732  163.7273 C.2     1  UNL1        0.2506
     32 O         139.8257  139.3363  163.9724 O.2     1  UNL1       -0.2698
     33 N         140.7566  141.6031  164.8355 N.am    1  UNL1       -0.2658
     34 H         140.9888  142.5462  164.6745 H       1  UNL1        0.1566
     35 C         140.9799  140.9961  166.1889 C.ar    1  UNL1        0.1343
     36 C         139.8407  140.8859  167.1585 C.ar    1  UNL1        0.0383
     37 C         140.0639  140.2789  168.5120 C.ar    1  UNL1        0.0757
     38 C         141.4263  139.7822  168.8957 C.ar    1  UNL1        0.0246
     39 C         142.5654  139.8924  167.9260 C.ar    1  UNL1        0.1003
     40 N         142.3422  140.4994  166.5726 N.ar    1  UNL1       -0.2290
     41 C         138.9248  140.1687  169.4816 C.3     1  UNL1        0.4187
     42 F         137.7857  140.0584  170.4512 F       1  UNL1       -0.1659
     43 F         138.1629  139.3378  168.4921 F       1  UNL1       -0.1659
     44 F         139.6867  140.9995  170.4711 F       1  UNL1       -0.1659
@<TRIPOS>BOND
     1    22    23    1
     2    23    21    1
     3    21    13    1
     4    13    14    2
     5    13    15   am
     6    15    16    1
     7    16    17    1
     8    17    18    1
     9    18    19    1
    10    19     1    1
    11     1     2   ar
    12     2     3   ar
    13     3    24    1
    14    24    25   ar
    15    25    26   ar
    16    26    27   ar
    17    27    31    1
    18    31    32    2
    19    31    33   am
    20    33    35    1
    21    35    36   ar
    22    36    37   ar
    23    37    41    1
    24    41    42    1
    25    41    43    1
    26    41    44    1
    27    37    38   ar
    28    38    39   ar
    29    39    40   ar
    30    27    28   ar
    31    28    29   ar
    32    29    30    1
    33     3     4   ar
    34     4     5   ar
    35     5     6    1
    36     5     7   ar
    37     7     8   ar
    38     8     9   ar
    39     9    10   ar
    40    19    20    1
    41    20    15    1
    42    10     1   ar
    43    29    24   ar
    44    10     4   ar
    45    40    35   ar
    46    33    34    1
    47     6    11    1
    48     6    12    1
@<TRIPOS>MOLECULE
*****
 44 48 0 0 0
SMALL
GASTEIGER

@<TRIPOS>ATOM
      1 C         137.7544  140.3660  156.9960 C.ar    1  UNL1        0.1534
      2 N         137.8218  140.8146  158.4257 N.ar    1  UNL1       -0.2279
      3 C         139.0115  140.1588  159.0617 C.ar    1  UNL1        0.1036
      4 C         139.6794  139.3048  158.0250 C.ar    1  UNL1        0.1142
      5 C         140.8946  138.4271  158.0786 C.ar    1  UNL1        0.1432
      6 N         141.6716  138.2991  159.3553 N.pl3   1  UNL1       -0.3414
      7 N         141.3329  137.6776  156.8555 N.ar    1  UNL1       -0.2265
      8 C         140.5559  137.8056  155.5788 C.ar    1  UNL1        0.1193
      9 C         139.3407  138.6833  155.5252 C.ar    1  UNL1        0.1021
     10 N         138.9025  139.4329  156.7483 N.ar    1  UNL1       -0.2865
     11 H         141.3839  138.7911  160.1580 H       1  UNL1        0.1438
     12 H         142.4692  137.7230  159.3904 H       1  UNL1        0.1438
     13 C         132.7733  141.0602  155.6895 C.2     1  UNL1        0.2560
     14 O         132.3507  140.5831  157.0474 O.2     1  UNL1       -0.2721
     15 N         134.2299  141.1252  155.3372 N.am    1  UNL1       -0.2720
     16 C         134.6525  141.6023  153.9793 C.3     1  UNL1        0.1256
     17 C         136.1091  141.6673  153.6271 C.3     1  UNL1        0.1641
     18 O         137.1431  141.2552  154.6326 O.3     1  UNL1       -0.3451
     19 C         136.7205  140.7781  155.9904 C.3     1  UNL1        0.1913
     20 C         135.2638  140.7131  156.3427 C.3     1  UNL1        0.1308
     21 C         131.7394  141.4723  154.6840 C.3     1  UNL1        0.2272
     22 C         129.2843  141.0772  155.4368 C.3     1  UNL1        0.1748
     23 O         130.4188  142.0142  155.1451 O.3     1  UNL1       -0.3417
     24 C         139.4555  140.3273  160.4845 C.ar    1  UNL1        0.0467
     25 C         140.3971  141.4361  160.8501 C.ar    1  UNL1        0.0039
     26 C         140.8410  141.6046  162.2730 C.ar    1  UNL1        0.0047
     27 C         140.3434  140.6642  163.3303 C.ar    1  UNL1        0.0559
     28 C         139.4017  139.5553  162.9648 C.ar    1  UNL1        0.0342
     29 C         138.9578  139.3868  161.5419 C.ar    1  UNL1        0.1417
     30 F         138.0162  138.2779  161.1764 F       1  UNL1       -0.2041
     31 C         140.7873  140.8327  164.7532 C.2     1  UNL1        0.2506
     32 O         140.9717  139.6289  165.6288 O.2     1  UNL1       -0.2698
     33 N         141.0468  142.2050  165.3004 N.am    1  UNL1       -0.2658
     34 H         140.9257  142.9951  164.7257 H       1  UNL1        0.1566
     35 C         141.4908  142.3734  166.7233 C.ar    1  UNL1        0.1343
     36 C         140.4873  142.7054  167.7876 C.ar    1  UNL1        0.0383
     37 C         140.9312  142.8739  169.2105 C.ar    1  UNL1        0.0757
     38 C         142.3785  142.7103  169.5690 C.ar    1  UNL1        0.0246
     39 C         143.3819  142.3783  168.5046 C.ar    1  UNL1        0.1003
     40 N         142.9381  142.2099  167.0817 N.ar    1  UNL1       -0.2290
     41 C         139.9278  143.2059  170.2749 C.3     1  UNL1        0.4187
     42 F         138.9243  143.5379  171.3393 F       1  UNL1       -0.1659
     43 F         139.5276  141.7621  170.3480 F       1  UNL1       -0.1659
     44 F         140.3279  144.6496  170.2018 F       1  UNL1       -0.1659
@<TRIPOS>BOND
     1    22    23    1
     2    23    21    1
     3    21    13    1
     4    13    14    2
     5    13    15   am
     6    15    16    1
     7    16    17    1
     8    17    18    1
     9    18    19    1
    10    19     1    1
    11     1     2   ar
    12     2     3   ar
    13     3    24    1
    14    24    25   ar
    15    25    26   ar
    16    26    27   ar
    17    27    31    1
    18    31    32    2
    19    31    33   am
    20    33    35    1
    21    35    36   ar
    22    36    37   ar
    23    37    41    1
    24    41    42    1
    25    41    43    1
    26    41    44    1
    27    37    38   ar
    28    38    39   ar
    29    39    40   ar
    30    27    28   ar
    31    28    29   ar
    32    29    30    1
    33     3     4   ar
    34     4     5   ar
    35     5     6    1
    36     5     7   ar
    37     7     8   ar
    38     8     9   ar
    39     9    10   ar
    40    19    20    1
    41    20    15    1
    42    10     1   ar
    43    29    24   ar
    44    10     4   ar
    45    40    35   ar
    46    33    34    1
    47     6    11    1
    48     6    12    1
@<TRIPOS>MOLECULE
*****
 44 48 0 0 0
SMALL
GASTEIGER

@<TRIPOS>ATOM
      1 C         142.8527  136.8613  157.2653 C.ar    1  UNL1        0.1534
      2 N         142.4369  136.9427  158.7042 N.ar    1  UNL1       -0.2279
      3 C         142.4929  138.3822  159.1221 C.ar    1  UNL1        0.1036
      4 C         142.9433  139.1905  157.9414 C.ar    1  UNL1        0.1142
      5 C         143.1796  140.6609  157.7630 C.ar    1  UNL1        0.1432
      6 N         142.9573  141.6010  158.9106 N.pl3   1  UNL1       -0.3414
      7 N         143.6383  141.1914  156.4371 N.ar    1  UNL1       -0.2265
      8 C         143.8606  140.2513  155.2895 C.ar    1  UNL1        0.1193
      9 C         143.6243  138.7809  155.4679 C.ar    1  UNL1        0.1021
     10 N         143.1656  138.2505  156.7939 N.ar    1  UNL1       -0.2865
     11 H         142.6562  141.2528  159.7809 H       1  UNL1        0.1438
     12 H         143.1124  142.5661  158.7935 H       1  UNL1        0.1438
     13 C         144.7326  132.0710  156.5449 C.2     1  UNL1        0.2560
     14 O         145.4976  132.1779  157.8307 O.2     1  UNL1       -0.2721
     15 N         143.8801  133.2151  156.0821 N.am    1  UNL1       -0.2720
     16 C         143.1151  133.1082  154.7963 C.3     1  UNL1        0.1256
     17 C         142.2626  134.2524  154.3335 C.3     1  UNL1        0.1641
     18 O         142.1752  135.5034  155.1565 O.3     1  UNL1       -0.3451
     19 C         142.9401  135.6103  156.4423 C.3     1  UNL1        0.1913
     20 C         143.7927  134.4661  156.9051 C.3     1  UNL1        0.1308
     21 C         144.8201  130.8200  155.7219 C.3     1  UNL1        0.2272
     22 C         143.2976  128.9131  156.6140 C.3     1  UNL1        0.1748
     23 O         144.6662  129.4792  156.3766 O.3     1  UNL1       -0.3417
     24 C         142.1575  138.9193  160.4819 C.ar    1  UNL1        0.0467
     25 C         140.7703  139.4098  160.7733 C.ar    1  UNL1        0.0039
     26 C         140.4349  139.9469  162.1331 C.ar    1  UNL1        0.0047
     27 C         141.4867  139.9934  163.2016 C.ar    1  UNL1        0.0559
     28 C         142.8739  139.5029  162.9102 C.ar    1  UNL1        0.0342
     29 C         143.2094  138.9658  161.5504 C.ar    1  UNL1        0.1417
     30 F         144.5966  138.4753  161.2590 F       1  UNL1       -0.2041
     31 C         141.1512  140.5305  164.5614 C.2     1  UNL1        0.2506
     32 O         140.5047  141.8771  164.6972 O.2     1  UNL1       -0.2698
     33 N         141.4622  139.7208  165.7852 N.am    1  UNL1       -0.2658
     34 H         141.8866  138.8370  165.6960 H       1  UNL1        0.1566
     35 C         141.1268  140.2580  167.1450 C.ar    1  UNL1        0.1343
     36 C         142.1016  141.1435  167.8630 C.ar    1  UNL1        0.0383
     37 C         141.7662  141.6807  169.2227 C.ar    1  UNL1        0.0757
     38 C         140.4559  141.3323  169.8644 C.ar    1  UNL1        0.0246
     39 C         139.4811  140.4468  169.1464 C.ar    1  UNL1        0.1003
     40 N         139.8165  139.9096  167.7867 N.ar    1  UNL1       -0.2290
     41 C         142.7411  142.5662  169.9407 C.3     1  UNL1        0.4187
     42 F         143.7159  143.4517  170.6587 F       1  UNL1       -0.1659
     43 F         141.7312  143.6753  169.9440 F       1  UNL1       -0.1659
     44 F         143.7509  141.4571  169.9374 F       1  UNL1       -0.1659
@<TRIPOS>BOND
     1    22    23    1
     2    23    21    1
     3    21    13    1
     4    13    14    2
     5    13    15   am
     6    15    16    1
     7    16    17    1
     8    17    18    1
     9    18    19    1
    10    19     1    1
    11     1     2   ar
    12     2     3   ar
    13     3    24    1
    14    24    25   ar
    15    25    26   ar
    16    26    27   ar
    17    27    31    1
    18    31    32    2
    19    31    33   am
    20    33    35    1
    21    35    36   ar
    22    36    37   ar
    23    37    41    1
    24    41    42    1
    25    41    43    1
    26    41    44    1
    27    37    38   ar
    28    38    39   ar
    29    39    40   ar
    30    27    28   ar
    31    28    29   ar
    32    29    30    1
    33     3     4   ar
    34     4     5   ar
    35     5     6    1
    36     5     7   ar
    37     7     8   ar
    38     8     9   ar
    39     9    10   ar
    40    19    20    1
    41    20    15    1
    42    10     1   ar
    43    29    24   ar
    44    10     4   ar
    45    40    35   ar
    46    33    34    1
    47     6    11    1
    48     6    12    1
@<TRIPOS>MOLECULE
*****
 44 48 0 0 0
SMALL
GASTEIGER

@<TRIPOS>ATOM
      1 C         144.9657  141.7137  157.0500 C.ar    1  UNL1        0.1534
      2 N         144.7942  142.3401  158.4021 N.ar    1  UNL1       -0.2279
      3 C         143.9787  141.4056  159.2457 C.ar    1  UNL1        0.1036
      4 C         143.6461  140.2018  158.4150 C.ar    1  UNL1        0.1142
      5 C         142.8666  138.9568  158.7190 C.ar    1  UNL1        0.1432
      6 N         142.2565  138.7665  160.0760 N.pl3   1  UNL1       -0.3414
      7 N         142.6971  137.9022  157.6658 N.ar    1  UNL1       -0.2265
      8 C         143.3071  138.0926  156.3088 C.ar    1  UNL1        0.1193
      9 C         144.0866  139.3376  156.0048 C.ar    1  UNL1        0.1021
     10 N         144.2561  140.3921  157.0580 N.ar    1  UNL1       -0.2865
     11 H         142.3678  139.4586  160.7672 H       1  UNL1        0.1438
     12 H         141.7449  137.9493  160.2755 H       1  UNL1        0.1438
     13 C         149.3844  142.3053  154.3807 C.2     1  UNL1        0.2560
     14 O         150.0947  141.4185  155.3600 O.2     1  UNL1       -0.2721
     15 N         147.9246  142.6008  154.5583 N.am    1  UNL1       -0.2720
     16 C         147.2143  143.4875  153.5790 C.3     1  UNL1        0.1256
     17 C         145.7544  143.7830  153.7567 C.3     1  UNL1        0.1641
     18 O         145.0049  143.1917  154.9137 O.3     1  UNL1       -0.3451
     19 C         145.7152  142.3050  155.8930 C.3     1  UNL1        0.1913
     20 C         147.1751  142.0095  155.7153 C.3     1  UNL1        0.1308
     21 C         150.1339  142.8966  153.2237 C.3     1  UNL1        0.2272
     22 C         152.3015  144.3240  153.1043 C.3     1  UNL1        0.1748
     23 O         151.6302  142.9929  153.2698 O.3     1  UNL1       -0.3417
     24 C         143.5678  141.6348  160.6700 C.ar    1  UNL1        0.0467
     25 C         144.3253  140.9762  161.7845 C.ar    1  UNL1        0.0039
     26 C         143.9145  141.2054  163.2088 C.ar    1  UNL1        0.0047
     27 C         142.7459  142.0933  163.5187 C.ar    1  UNL1        0.0559
     28 C         141.9883  142.7520  162.4042 C.ar    1  UNL1        0.0342
     29 C         142.3991  142.5228  160.9799 C.ar    1  UNL1        0.1417
     30 F         141.6415  143.1816  159.8655 F       1  UNL1       -0.2041
     31 C         142.3350  142.3225  164.9430 C.2     1  UNL1        0.2506
     32 O         141.2202  143.2754  165.2578 O.2     1  UNL1       -0.2698
     33 N         143.0389  141.5988  166.0524 N.am    1  UNL1       -0.2658
     34 H         143.7706  140.9734  165.8457 H       1  UNL1        0.1566
     35 C         142.6280  141.8281  167.4767 C.ar    1  UNL1        0.1343
     36 C         141.2741  141.3856  167.9471 C.ar    1  UNL1        0.0383
     37 C         140.8631  141.6148  169.3713 C.ar    1  UNL1        0.0757
     38 C         141.8059  142.2865  170.3251 C.ar    1  UNL1        0.0246
     39 C         143.1598  142.7290  169.8547 C.ar    1  UNL1        0.1003
     40 N         143.5708  142.4998  168.4304 N.ar    1  UNL1       -0.2290
     41 C         139.5092  141.1723  169.8417 C.3     1  UNL1        0.4187
     42 F         138.1554  140.7298  170.3121 F       1  UNL1       -0.1659
     43 F         139.7503  139.8124  169.2564 F       1  UNL1       -0.1659
     44 F         139.2682  142.5321  170.4271 F       1  UNL1       -0.1659
@<TRIPOS>BOND
     1    22    23    1
     2    23    21    1
     3    21    13    1
     4    13    14    2
     5    13    15   am
     6    15    16    1
     7    16    17    1
     8    17    18    1
     9    18    19    1
    10    19     1    1
    11     1     2   ar
    12     2     3   ar
    13     3    24    1
    14    24    25   ar
    15    25    26   ar
    16    26    27   ar
    17    27    31    1
    18    31    32    2
    19    31    33   am
    20    33    35    1
    21    35    36   ar
    22    36    37   ar
    23    37    41    1
    24    41    42    1
    25    41    43    1
    26    41    44    1
    27    37    38   ar
    28    38    39   ar
    29    39    40   ar
    30    27    28   ar
    31    28    29   ar
    32    29    30    1
    33     3     4   ar
    34     4     5   ar
    35     5     6    1
    36     5     7   ar
    37     7     8   ar
    38     8     9   ar
    39     9    10   ar
    40    19    20    1
    41    20    15    1
    42    10     1   ar
    43    29    24   ar
    44    10     4   ar
    45    40    35   ar
    46    33    34    1
    47     6    11    1
    48     6    12    1
