@<TRIPOS>MOLECULE
*****
 23 24 0 0 0
SMALL
GASTEIGER

@<TRIPOS>ATOM
      1 C         140.5447  139.5261  164.0722 C.cat   1  UNL1        0.4181
      2 N         141.4614  140.2707  164.9969 N.2     1  UNL1        0.0599
      3 N         141.0332  139.0898  162.7226 N.pl3   1  UNL1       -0.0877
      4 C         142.3942  138.5405  162.4129 C.3     1  UNL1        0.2015
      5 C         142.4486  138.2375  160.9448 C.3     1  UNL1        0.0761
      6 C         143.8484  137.7927  161.2487 C.3     1  UNL1        0.0094
      7 C         142.7956  137.8414  159.5403 C.3     1  UNL1        0.0094
      8 C         141.1211  138.5995  160.3473 C.2     1  UNL1        0.1100
      9 N         140.2464  139.1263  161.4461 N.2     1  UNL1       -0.1191
     10 S         140.9730  140.7070  166.3463 S.O2    1  UNL1        0.1557
     11 O         140.4708  141.9886  165.7503 O.2     1  UNL1       -0.1324
     12 O         141.4752  139.4254  166.9424 O.2     1  UNL1       -0.1324
     13 C         140.4846  141.1432  167.6959 C.ar    1  UNL1        0.1446
     14 C         139.7472  140.1771  168.5749 C.ar    1  UNL1        0.0218
     15 C         139.2588  140.6134  169.9244 C.ar    1  UNL1        0.0023
     16 C         139.5079  142.0157  170.3949 C.ar    1  UNL1        0.0115
     17 C         140.2453  142.9818  169.5158 C.ar    1  UNL1        0.0591
     18 CL        140.4944  144.3842  169.9863 Cl      1  UNL1       -0.0822
     19 C         140.7337  142.5456  168.1663 C.ar    1  UNL1        0.0332
     20 N         139.1396  139.2176  164.4969 N.pl3   1  UNL1       -0.2217
     21 H         138.4294  139.8881  164.3728 H       1  UNL1        0.2454
     22 C         138.0028  137.8204  166.3693 C.3     1  UNL1        0.0436
     23 C         138.8164  137.8877  165.1108 C.3     1  UNL1        0.1638
@<TRIPOS>BOND
     1    22    23    1
     2    23    20    1
     3    20     1    1
     4     1     2    2
     5     2    10    1
     6    10    11    2
     7    10    12    2
     8    10    13    1
     9    13    14   ar
    10    14    15   ar
    11    15    16   ar
    12    16    17   ar
    13    17    18    1
    14    17    19   ar
    15     1     3    1
    16     3     4    1
    17     4     5    1
    18     5     6    1
    19     5     7    1
    20     5     8    1
    21     8     9    2
    22    19    13   ar
    23     9     3    1
    24    20    21    1
@<TRIPOS>MOLECULE
*****
 23 24 0 0 0
SMALL
GASTEIGER

@<TRIPOS>ATOM
      1 C         138.4809  141.3008  163.7866 C.cat   1  UNL1        0.4181
      2 N         139.5778  140.6159  164.5467 N.2     1  UNL1        0.0599
      3 N         138.3141  141.0463  162.3178 N.pl3   1  UNL1       -0.0877
      4 C         138.6821  141.9907  161.2120 C.3     1  UNL1        0.2015
      5 C         138.3455  141.3308  159.9076 C.3     1  UNL1        0.0761
      6 C         138.8741  142.6006  159.3092 C.3     1  UNL1        0.0094
      7 C         138.1195  140.9364  158.4782 C.3     1  UNL1        0.0094
      8 C         137.7697  139.9785  160.2073 C.2     1  UNL1        0.1100
      9 N         137.7503  139.8027  161.6969 N.2     1  UNL1       -0.1191
     10 S         139.7446  140.8704  166.0155 S.O2    1  UNL1        0.1557
     11 O         140.8992  141.7831  165.7262 O.2     1  UNL1       -0.1324
     12 O         138.5900  139.9577  166.3047 O.2     1  UNL1       -0.1324
     13 C         139.9113  141.1249  167.4844 C.ar    1  UNL1        0.1446
     14 C         139.7443  140.0013  168.4639 C.ar    1  UNL1        0.0218
     15 C         139.9110  140.2558  169.9327 C.ar    1  UNL1        0.0023
     16 C         140.2448  141.6339  170.4219 C.ar    1  UNL1        0.0115
     17 C         140.4119  142.7575  169.4424 C.ar    1  UNL1        0.0591
     18 CL        140.7457  144.1356  169.9316 Cl      1  UNL1       -0.0822
     19 C         140.2451  142.5030  167.9736 C.ar    1  UNL1        0.0332
     20 N         137.5508  142.2402  164.4954 N.pl3   1  UNL1       -0.2217
     21 H         136.8427  141.8844  165.0796 H       1  UNL1        0.2454
     22 C         138.6736  144.4869  165.1598 C.3     1  UNL1        0.0436
     23 C         137.6993  143.7218  164.3140 C.3     1  UNL1        0.1638
@<TRIPOS>BOND
     1    22    23    1
     2    23    20    1
     3    20     1    1
     4     1     2    2
     5     2    10    1
     6    10    11    2
     7    10    12    2
     8    10    13    1
     9    13    14   ar
    10    14    15   ar
    11    15    16   ar
    12    16    17   ar
    13    17    18    1
    14    17    19   ar
    15     1     3    1
    16     3     4    1
    17     4     5    1
    18     5     6    1
    19     5     7    1
    20     5     8    1
    21     8     9    2
    22    19    13   ar
    23     9     3    1
    24    20    21    1
@<TRIPOS>MOLECULE
*****
 23 24 0 0 0
SMALL
GASTEIGER

@<TRIPOS>ATOM
      1 C         140.1577  140.1425  164.2465 C.cat   1  UNL1        0.4181
      2 N         140.8925  141.4251  164.5016 N.2     1  UNL1        0.0599
      3 N         139.9022  139.6917  162.8388 N.pl3   1  UNL1       -0.0877
      4 C         140.9476  139.3421  161.8216 C.3     1  UNL1        0.2015
      5 C         140.2479  138.9457  160.5553 C.3     1  UNL1        0.0761
      6 C         141.6403  138.7496  160.0331 C.3     1  UNL1        0.0094
      7 C         139.8393  138.5083  159.1799 C.3     1  UNL1        0.0094
      8 C         138.7701  139.0504  160.7900 C.2     1  UNL1        0.1100
      9 N         138.5564  139.5115  162.2013 N.2     1  UNL1       -0.1191
     10 S         141.1481  141.8759  165.9092 S.O2    1  UNL1        0.1557
     11 O         142.1760  140.7952  166.0687 O.2     1  UNL1       -0.1324
     12 O         140.1202  142.9566  165.7497 O.2     1  UNL1       -0.1324
     13 C         141.4036  142.3268  167.3169 C.ar    1  UNL1        0.1446
     14 C         140.3017  142.9606  168.1131 C.ar    1  UNL1        0.0218
     15 C         140.5573  143.4114  169.5207 C.ar    1  UNL1        0.0023
     16 C         141.9148  143.2284  170.1321 C.ar    1  UNL1        0.0115
     17 C         143.0167  142.5946  169.3358 C.ar    1  UNL1        0.0591
     18 CL        144.3742  142.4117  169.9472 Cl      1  UNL1       -0.0822
     19 C         142.7611  142.1438  167.9282 C.ar    1  UNL1        0.0332
     20 N         139.6784  139.3108  165.3991 N.pl3   1  UNL1       -0.2217
     21 H         140.3088  138.7284  165.8816 H       1  UNL1        0.2454
     22 C         137.7473  138.4928  166.9327 C.3     1  UNL1        0.0436
     23 C         138.2388  139.3663  165.8166 C.3     1  UNL1        0.1638
@<TRIPOS>BOND
     1    22    23    1
     2    23    20    1
     3    20     1    1
     4     1     2    2
     5     2    10    1
     6    10    11    2
     7    10    12    2
     8    10    13    1
     9    13    14   ar
    10    14    15   ar
    11    15    16   ar
    12    16    17   ar
    13    17    18    1
    14    17    19   ar
    15     1     3    1
    16     3     4    1
    17     4     5    1
    18     5     6    1
    19     5     7    1
    20     5     8    1
    21     8     9    2
    22    19    13   ar
    23     9     3    1
    24    20    21    1
@<TRIPOS>MOLECULE
*****
 23 24 0 0 0
SMALL
GASTEIGER

@<TRIPOS>ATOM
      1 C         140.4149  140.3049  166.2249 C.cat   1  UNL1        0.4181
      2 N         141.7939  139.8815  165.8135 N.2     1  UNL1        0.0599
      3 N         140.1640  140.7861  167.6233 N.pl3   1  UNL1       -0.0877
      4 C         140.4523  142.1618  168.1473 C.3     1  UNL1        0.2015
      5 C         140.0473  142.2021  169.5911 C.3     1  UNL1        0.0761
      6 C         140.5219  143.6232  169.5216 C.3     1  UNL1        0.0094
      7 C         139.7415  142.5395  171.0203 C.3     1  UNL1        0.0094
      8 C         139.5086  140.8513  169.9593 C.2     1  UNL1        0.1100
      9 N         139.5808  139.9763  168.7431 N.2     1  UNL1       -0.1191
     10 S         142.0448  139.4003  164.4152 S.O2    1  UNL1        0.1557
     11 O         141.8650  140.7982  163.9019 O.2     1  UNL1       -0.1324
     12 O         142.2246  138.0024  164.9285 O.2     1  UNL1       -0.1324
     13 C         142.2957  138.9190  163.0168 C.ar    1  UNL1        0.1446
     14 C         143.6558  138.4197  162.6282 C.ar    1  UNL1        0.0218
     15 C         143.9066  137.9385  161.2298 C.ar    1  UNL1        0.0023
     16 C         142.7975  137.9565  160.2201 C.ar    1  UNL1        0.0115
     17 C         141.4375  138.4558  160.6087 C.ar    1  UNL1        0.0591
     18 CL        140.3284  138.4738  159.5990 Cl      1  UNL1       -0.0822
     19 C         141.1866  138.9370  162.0071 C.ar    1  UNL1        0.0332
     20 N         139.2869  140.2471  165.2379 N.pl3   1  UNL1       -0.2217
     21 H         139.2078  140.9368  164.5398 H       1  UNL1        0.2454
     22 C         138.7365  137.7102  165.3441 C.3     1  UNL1        0.0436
     23 C         138.2793  139.1386  165.3146 C.3     1  UNL1        0.1638
@<TRIPOS>BOND
     1    22    23    1
     2    23    20    1
     3    20     1    1
     4     1     2    2
     5     2    10    1
     6    10    11    2
     7    10    12    2
     8    10    13    1
     9    13    14   ar
    10    14    15   ar
    11    15    16   ar
    12    16    17   ar
    13    17    18    1
    14    17    19   ar
    15     1     3    1
    16     3     4    1
    17     4     5    1
    18     5     6    1
    19     5     7    1
    20     5     8    1
    21     8     9    2
    22    19    13   ar
    23     9     3    1
    24    20    21    1
@<TRIPOS>MOLECULE
*****
 23 24 0 0 0
SMALL
GASTEIGER

@<TRIPOS>ATOM
      1 C         138.7218  142.3656  161.8570 C.cat   1  UNL1        0.4181
      2 N         139.5247  141.2253  162.4093 N.2     1  UNL1        0.0599
      3 N         138.9116  142.7960  160.4326 N.pl3   1  UNL1       -0.0877
      4 C         138.3801  142.0905  159.2202 C.3     1  UNL1        0.2015
      5 C         138.8062  142.8659  158.0088 C.3     1  UNL1        0.0761
      6 C         138.0683  141.7966  157.2592 C.3     1  UNL1        0.0094
      7 C         139.0781  143.4177  156.6408 C.3     1  UNL1        0.0094
      8 C         139.6010  144.0505  158.4727 C.2     1  UNL1        0.1100
      9 N         139.6661  144.0073  159.9706 N.2     1  UNL1       -0.1191
     10 S         139.3349  140.7949  163.8336 S.O2    1  UNL1        0.1557
     11 O         140.4863  141.6618  164.2490 O.2     1  UNL1       -0.1324
     12 O         138.1835  139.9279  163.4182 O.2     1  UNL1       -0.1324
     13 C         139.1451  140.3645  165.2580 C.ar    1  UNL1        0.1446
     14 C         139.9316  141.0237  166.3519 C.ar    1  UNL1        0.0218
     15 C         139.7417  140.5933  167.7761 C.ar    1  UNL1        0.0023
     16 C         138.7654  139.5036  168.1065 C.ar    1  UNL1        0.0115
     17 C         137.9788  138.8443  167.0126 C.ar    1  UNL1        0.0591
     18 CL        137.0025  137.7545  167.3430 Cl      1  UNL1       -0.0822
     19 C         138.1687  139.2747  165.5884 C.ar    1  UNL1        0.0332
     20 N         137.7291  143.0756  162.7291 N.pl3   1  UNL1       -0.2217
     21 H         136.8273  142.7009  162.8543 H       1  UNL1        0.2454
     22 C         138.2765  144.3924  164.9008 C.3     1  UNL1        0.0436
     23 C         138.1104  144.3564  163.4104 C.3     1  UNL1        0.1638
@<TRIPOS>BOND
     1    22    23    1
     2    23    20    1
     3    20     1    1
     4     1     2    2
     5     2    10    1
     6    10    11    2
     7    10    12    2
     8    10    13    1
     9    13    14   ar
    10    14    15   ar
    11    15    16   ar
    12    16    17   ar
    13    17    18    1
    14    17    19   ar
    15     1     3    1
    16     3     4    1
    17     4     5    1
    18     5     6    1
    19     5     7    1
    20     5     8    1
    21     8     9    2
    22    19    13   ar
    23     9     3    1
    24    20    21    1
@<TRIPOS>MOLECULE
*****
 23 24 0 0 0
SMALL
GASTEIGER

@<TRIPOS>ATOM
      1 C         139.4369  140.8960  164.0906 C.cat   1  UNL1        0.4181
      2 N         140.7316  141.6005  164.3689 N.2     1  UNL1        0.0599
      3 N         139.0400  140.5868  162.6774 N.pl3   1  UNL1       -0.0877
      4 C         139.9627  140.5229  161.4965 C.3     1  UNL1        0.2015
      5 C         139.1437  140.1838  160.2863 C.3     1  UNL1        0.0761
      6 C         140.4587  140.2620  159.5690 C.3     1  UNL1        0.0094
      7 C         138.5998  139.8611  158.9261 C.3     1  UNL1        0.0094
      8 C         137.7150  140.0382  160.7194 C.2     1  UNL1        0.1100
      9 N         137.6509  140.2873  162.1971 N.2     1  UNL1       -0.1191
     10 S         141.1284  141.9097  165.7820 S.O2    1  UNL1        0.1557
     11 O         140.4852  143.2599  165.6672 O.2     1  UNL1       -0.1324
     12 O         141.7717  140.5595  165.8967 O.2     1  UNL1       -0.1324
     13 C         141.5254  142.2189  167.1951 C.ar    1  UNL1        0.1446
     14 C         142.9604  142.0980  167.6146 C.ar    1  UNL1        0.0218
     15 C         143.3573  142.4071  169.0277 C.ar    1  UNL1        0.0023
     16 C         142.3191  142.8372  170.0213 C.ar    1  UNL1        0.0115
     17 C         140.8841  142.9581  169.6018 C.ar    1  UNL1        0.0591
     18 CL        139.8459  143.3881  170.5955 Cl      1  UNL1       -0.0822
     19 C         140.4872  142.6489  168.1888 C.ar    1  UNL1        0.0332
     20 N         138.5391  140.5007  165.2253 N.pl3   1  UNL1       -0.2217
     21 H         138.0654  141.1920  165.7420 H       1  UNL1        0.2454
     22 C         137.8356  138.6633  166.9222 C.3     1  UNL1        0.0436
     23 C         138.3630  139.0522  165.5728 C.3     1  UNL1        0.1638
@<TRIPOS>BOND
     1    22    23    1
     2    23    20    1
     3    20     1    1
     4     1     2    2
     5     2    10    1
     6    10    11    2
     7    10    12    2
     8    10    13    1
     9    13    14   ar
    10    14    15   ar
    11    15    16   ar
    12    16    17   ar
    13    17    18    1
    14    17    19   ar
    15     1     3    1
    16     3     4    1
    17     4     5    1
    18     5     6    1
    19     5     7    1
    20     5     8    1
    21     8     9    2
    22    19    13   ar
    23     9     3    1
    24    20    21    1
@<TRIPOS>MOLECULE
*****
 23 24 0 0 0
SMALL
GASTEIGER

@<TRIPOS>ATOM
      1 C         140.7078  143.7435  163.5641 C.cat   1  UNL1        0.4181
      2 N         141.3540  142.5497  164.2024 N.2     1  UNL1        0.0599
      3 N         140.4942  143.7766  162.0797 N.pl3   1  UNL1       -0.0877
      4 C         139.4886  142.9675  161.3154 C.3     1  UNL1        0.2015
      5 C         139.6217  143.3154  159.8623 C.3     1  UNL1        0.0761
      6 C         138.5132  142.3207  159.6846 C.3     1  UNL1        0.0094
      7 C         139.5230  143.4553  158.3722 C.3     1  UNL1        0.0094
      8 C         140.7096  144.3395  159.7287 C.2     1  UNL1        0.1100
      9 N         141.2489  144.6244  161.0991 N.2     1  UNL1       -0.1191
     10 S         141.5675  142.5166  165.6867 S.O2    1  UNL1        0.1557
     11 O         142.8927  143.1971  165.5113 O.2     1  UNL1       -0.1324
     12 O         140.2423  141.8361  165.8622 O.2     1  UNL1       -0.1324
     13 C         141.7810  142.4834  167.1711 C.ar    1  UNL1        0.1446
     14 C         143.1567  142.2613  167.7262 C.ar    1  UNL1        0.0218
     15 C         143.3701  142.2281  169.2105 C.ar    1  UNL1        0.0023
     16 C         142.2079  142.4171  170.1398 C.ar    1  UNL1        0.0115
     17 C         140.8322  142.6393  169.5847 C.ar    1  UNL1        0.0591
     18 CL        139.6700  142.8282  170.5140 Cl      1  UNL1       -0.0822
     19 C         140.6188  142.6724  168.1004 C.ar    1  UNL1        0.0332
     20 N         140.2751  144.9041  164.4101 N.pl3   1  UNL1       -0.2217
     21 H         140.8727  145.6776  164.5273 H       1  UNL1        0.2454
     22 C         137.8247  144.0466  164.5124 C.3     1  UNL1        0.0436
     23 C         138.9319  144.8861  165.0776 C.3     1  UNL1        0.1638
@<TRIPOS>BOND
     1    22    23    1
     2    23    20    1
     3    20     1    1
     4     1     2    2
     5     2    10    1
     6    10    11    2
     7    10    12    2
     8    10    13    1
     9    13    14   ar
    10    14    15   ar
    11    15    16   ar
    12    16    17   ar
    13    17    18    1
    14    17    19   ar
    15     1     3    1
    16     3     4    1
    17     4     5    1
    18     5     6    1
    19     5     7    1
    20     5     8    1
    21     8     9    2
    22    19    13   ar
    23     9     3    1
    24    20    21    1
@<TRIPOS>MOLECULE
*****
 23 24 0 0 0
SMALL
GASTEIGER

@<TRIPOS>ATOM
      1 C         142.4177  140.3971  164.0892 C.cat   1  UNL1        0.4181
      2 N         140.9905  140.3152  164.5435 N.2     1  UNL1        0.0599
      3 N         142.7776  140.0366  162.6783 N.pl3   1  UNL1       -0.0877
      4 C         142.1756  140.6253  161.4370 C.3     1  UNL1        0.2015
      5 C         142.8286  139.9766  160.2525 C.3     1  UNL1        0.0761
      6 C         141.9198  140.8696  159.4611 C.3     1  UNL1        0.0094
      7 C         143.2916  139.5146  158.9027 C.3     1  UNL1        0.0094
      8 C         143.8342  138.9870  160.7620 C.2     1  UNL1        0.1100
      9 N         143.8027  139.0241  162.2612 N.2     1  UNL1       -0.1191
     10 S         140.6306  140.6757  165.9543 S.O2    1  UNL1        0.1557
     11 O         140.4519  139.2225  166.2801 O.2     1  UNL1       -0.1324
     12 O         140.8093  142.1289  165.6285 O.2     1  UNL1       -0.1324
     13 C         140.2707  141.0363  167.3652 C.ar    1  UNL1        0.1446
     14 C         139.5656  140.0402  168.2373 C.ar    1  UNL1        0.0218
     15 C         139.2057  140.4009  169.6481 C.ar    1  UNL1        0.0023
     16 C         139.5509  141.7576  170.1867 C.ar    1  UNL1        0.0115
     17 C         140.2560  142.7537  169.3146 C.ar    1  UNL1        0.0591
     18 CL        140.6012  144.1104  169.8533 Cl      1  UNL1       -0.0822
     19 C         140.6159  142.3930  167.9038 C.ar    1  UNL1        0.0332
     20 N         143.4850  140.8396  165.0458 N.pl3   1  UNL1       -0.2217
     21 H         143.5839  140.3892  165.9157 H       1  UNL1        0.2454
     22 C         145.6570  141.6926  163.9034 C.3     1  UNL1        0.0436
     23 C         144.4017  141.9682  164.6771 C.3     1  UNL1        0.1638
@<TRIPOS>BOND
     1    22    23    1
     2    23    20    1
     3    20     1    1
     4     1     2    2
     5     2    10    1
     6    10    11    2
     7    10    12    2
     8    10    13    1
     9    13    14   ar
    10    14    15   ar
    11    15    16   ar
    12    16    17   ar
    13    17    18    1
    14    17    19   ar
    15     1     3    1
    16     3     4    1
    17     4     5    1
    18     5     6    1
    19     5     7    1
    20     5     8    1
    21     8     9    2
    22    19    13   ar
    23     9     3    1
    24    20    21    1
@<TRIPOS>MOLECULE
*****
 23 24 0 0 0
SMALL
GASTEIGER

@<TRIPOS>ATOM
      1 C         140.1935  143.3853  162.1772 C.cat   1  UNL1        0.4181
      2 N         141.0431  142.3324  162.8248 N.2     1  UNL1        0.0599
      3 N         140.6086  143.9815  160.8648 N.pl3   1  UNL1       -0.0877
      4 C         141.7850  143.5571  160.0365 C.3     1  UNL1        0.2015
      5 C         141.8238  144.4200  158.8101 C.3     1  UNL1        0.0761
      6 C         143.0372  143.6072  158.4684 C.3     1  UNL1        0.0094
      7 C         142.1162  145.1130  157.5123 C.3     1  UNL1        0.0094
      8 C         140.6714  145.3777  158.8806 C.2     1  UNL1        0.1100
      9 N         139.9204  145.1067  160.1504 N.2     1  UNL1       -0.1191
     10 S         140.6280  141.7362  164.1371 S.O2    1  UNL1        0.1557
     11 O         139.6370  140.8625  163.4268 O.2     1  UNL1       -0.1324
     12 O         141.6189  142.6099  164.8475 O.2     1  UNL1       -0.1324
     13 C         140.2129  141.1400  165.4495 C.ar    1  UNL1        0.1446
     14 C         140.8485  141.6135  166.7230 C.ar    1  UNL1        0.0218
     15 C         140.4334  141.0173  168.0353 C.ar    1  UNL1        0.0023
     16 C         139.3826  139.9476  168.0741 C.ar    1  UNL1        0.0115
     17 C         138.7470  139.4740  166.8007 C.ar    1  UNL1        0.0591
     18 CL        137.6962  138.4043  166.8396 Cl      1  UNL1       -0.0822
     19 C         139.1621  140.0702  165.4884 C.ar    1  UNL1        0.0332
     20 N         138.9287  143.8420  162.8418 N.pl3   1  UNL1       -0.2217
     21 H         138.0767  143.3914  162.6411 H       1  UNL1        0.2454
     22 C         138.6694  144.7457  165.2638 C.3     1  UNL1        0.0436
     23 C         138.9620  144.9853  163.8122 C.3     1  UNL1        0.1638
@<TRIPOS>BOND
     1    22    23    1
     2    23    20    1
     3    20     1    1
     4     1     2    2
     5     2    10    1
     6    10    11    2
     7    10    12    2
     8    10    13    1
     9    13    14   ar
    10    14    15   ar
    11    15    16   ar
    12    16    17   ar
    13    17    18    1
    14    17    19   ar
    15     1     3    1
    16     3     4    1
    17     4     5    1
    18     5     6    1
    19     5     7    1
    20     5     8    1
    21     8     9    2
    22    19    13   ar
    23     9     3    1
    24    20    21    1
