@<TRIPOS>MOLECULE
*****
 34 37 0 0 0
SMALL
GASTEIGER

@<TRIPOS>ATOM
      1 C         142.0143  140.8072  161.2588 C.3     1  UNL1        0.1106
      2 C         143.4140  140.9206  161.7862 C.3     1  UNL1        0.0400
      3 C         143.6577  141.5002  163.1480 C.3     1  UNL1        0.0743
      4 N         142.5018  141.9665  163.9825 N.3     1  UNL1       -0.2665
      5 C         141.1021  141.8532  163.4552 C.3     1  UNL1        0.1098
      6 C         140.8584  141.2735  162.0933 C.3     1  UNL1        0.1948
      7 F         139.4587  141.1602  161.5660 F       1  UNL1       -0.2340
      8 C         141.4779  141.1334  158.7378 C.3     1  UNL1        0.1149
      9 N         141.7706  140.2276  159.8970 N.am    1  UNL1       -0.2763
     10 C         141.8196  138.7421  159.6944 C.2     1  UNL1        0.2301
     11 O         141.5759  138.1625  158.3325 O.2     1  UNL1       -0.2745
     12 C         142.1124  137.8363  160.8536 C.3     1  UNL1        0.1116
     13 C         141.2448  137.8790  162.0766 C.ar    1  UNL1       -0.0130
     14 C         139.7514  137.8543  161.9379 C.ar    1  UNL1       -0.0022
     15 C         138.8839  137.8970  163.1609 C.ar    1  UNL1        0.0190
     16 C         139.5098  137.9643  164.5224 C.ar    1  UNL1        0.0862
     17 C         141.0031  137.9891  164.6610 C.ar    1  UNL1        0.0190
     18 C         141.8706  137.9464  163.4381 C.ar    1  UNL1       -0.0022
     19 N         138.6422  138.0070  165.7453 N.ar    1  UNL1       -0.1886
     20 C         138.5242  139.1555  166.7030 C.ar    1  UNL1        0.2258
     21 N         137.5494  138.7670  167.7749 N.ar    1  UNL1       -0.1045
     22 N         137.0649  137.3784  167.4796 N.ar    1  UNL1       -0.0222
     23 N         137.7403  136.9088  166.2253 N.ar    1  UNL1       -0.0385
     24 C         142.7456  142.5462  165.3443 C.3     1  UNL1        0.0992
     25 C         142.1135  141.9180  166.5509 C.ar    1  UNL1       -0.0062
     26 C         142.5761  140.5722  167.0249 C.ar    1  UNL1       -0.0030
     27 C         141.9440  139.9440  168.2315 C.ar    1  UNL1        0.0036
     28 C         140.8493  140.6616  168.9641 C.ar    1  UNL1        0.0714
     29 C         140.3867  142.0075  168.4901 C.ar    1  UNL1        0.0036
     30 C         141.0188  142.6357  167.2835 C.ar    1  UNL1       -0.0030
     31 C         140.2172  140.0335  170.1707 C.3     1  UNL1        0.4186
     32 F         139.5852  139.4054  171.3773 F       1  UNL1       -0.1659
     33 F         141.3669  139.0757  170.2743 F       1  UNL1       -0.1659
     34 F         139.0676  140.9913  170.0671 F       1  UNL1       -0.1659
@<TRIPOS>BOND
     1     8     9    1
     2     9    10   am
     3    10    11    2
     4    10    12    1
     5    12    13    1
     6    13    14   ar
     7    14    15   ar
     8    15    16   ar
     9    16    19    1
    10    19    20   ar
    11    20    21   ar
    12    21    22   ar
    13    22    23   ar
    14    16    17   ar
    15    17    18   ar
    16     1     9    1
    17     1     2    1
    18     2     3    1
    19     3     4    1
    20     4    24    1
    21    24    25    1
    22    25    26   ar
    23    26    27   ar
    24    27    28   ar
    25    28    31    1
    26    31    32    1
    27    31    33    1
    28    31    34    1
    29    28    29   ar
    30    29    30   ar
    31     4     5    1
    32     5     6    1
    33     6     7    1
    34    18    13   ar
    35     6     1    1
    36    23    19   ar
    37    30    25   ar
@<TRIPOS>MOLECULE
*****
 34 37 0 0 0
SMALL
GASTEIGER

@<TRIPOS>ATOM
      1 C         143.3939  140.9635  161.9294 C.3     1  UNL1        0.1106
      2 C         144.6869  141.0466  162.6851 C.3     1  UNL1        0.0400
      3 C         144.7021  141.5715  164.0901 C.3     1  UNL1        0.0743
      4 N         143.4242  142.0133  164.7395 N.3     1  UNL1       -0.2665
      5 C         142.1310  141.9303  163.9838 C.3     1  UNL1        0.1098
      6 C         142.1159  141.4054  162.5788 C.3     1  UNL1        0.1948
      7 F         140.8229  141.3223  161.8231 F       1  UNL1       -0.2340
      8 C         143.3280  141.3925  159.3678 C.3     1  UNL1        0.1149
      9 N         143.3787  140.4386  160.5243 N.am    1  UNL1       -0.2763
     10 C         143.4143  138.9598  160.2757 C.2     1  UNL1        0.2301
     11 O         143.3991  138.4349  158.8706 O.2     1  UNL1       -0.2745
     12 C         143.4650  138.0059  161.4322 C.3     1  UNL1        0.1116
     13 C         142.3925  138.0402  162.4804 C.ar    1  UNL1       -0.0130
     14 C         142.7624  138.1738  163.9278 C.ar    1  UNL1       -0.0022
     15 C         141.6899  138.2081  164.9759 C.ar    1  UNL1        0.0190
     16 C         140.2475  138.1088  164.5765 C.ar    1  UNL1        0.0862
     17 C         139.8775  137.9753  163.1290 C.ar    1  UNL1        0.0190
     18 C         140.9500  137.9409  162.0810 C.ar    1  UNL1       -0.0022
     19 N         139.1749  138.1432  165.6247 N.ar    1  UNL1       -0.1886
     20 C         138.9619  139.2333  166.6328 C.ar    1  UNL1        0.2258
     21 N         137.7825  138.8574  167.4799 N.ar    1  UNL1       -0.1045
     22 N         137.2666  137.5348  166.9954 N.ar    1  UNL1       -0.0222
     23 N         138.1272  137.0934  165.8488 N.ar    1  UNL1       -0.0385
     24 C         143.4393  142.5383  166.1446 C.3     1  UNL1        0.0992
     25 C         142.5830  141.8951  167.1948 C.ar    1  UNL1       -0.0062
     26 C         141.4125  142.6385  167.7669 C.ar    1  UNL1       -0.0030
     27 C         140.5561  141.9953  168.8171 C.ar    1  UNL1        0.0036
     28 C         140.8703  140.6087  169.2952 C.ar    1  UNL1        0.0714
     29 C         142.0408  139.8652  168.7231 C.ar    1  UNL1        0.0036
     30 C         142.8972  140.5084  167.6729 C.ar    1  UNL1       -0.0030
     31 C         140.0140  139.9655  170.3454 C.3     1  UNL1        0.4186
     32 F         139.1576  139.3223  171.3956 F       1  UNL1       -0.1659
     33 F         138.9136  140.9396  170.0448 F       1  UNL1       -0.1659
     34 F         141.1143  138.9914  170.6460 F       1  UNL1       -0.1659
@<TRIPOS>BOND
     1     8     9    1
     2     9    10   am
     3    10    11    2
     4    10    12    1
     5    12    13    1
     6    13    14   ar
     7    14    15   ar
     8    15    16   ar
     9    16    19    1
    10    19    20   ar
    11    20    21   ar
    12    21    22   ar
    13    22    23   ar
    14    16    17   ar
    15    17    18   ar
    16     1     9    1
    17     1     2    1
    18     2     3    1
    19     3     4    1
    20     4    24    1
    21    24    25    1
    22    25    26   ar
    23    26    27   ar
    24    27    28   ar
    25    28    31    1
    26    31    32    1
    27    31    33    1
    28    31    34    1
    29    28    29   ar
    30    29    30   ar
    31     4     5    1
    32     5     6    1
    33     6     7    1
    34    18    13   ar
    35     6     1    1
    36    23    19   ar
    37    30    25   ar
@<TRIPOS>MOLECULE
*****
 34 37 0 0 0
SMALL
GASTEIGER

@<TRIPOS>ATOM
      1 C         142.4645  140.3696  168.2696 C.3     1  UNL1        0.1106
      2 C         142.6570  139.5913  167.0019 C.3     1  UNL1        0.0400
      3 C         143.2237  140.2645  165.7871 C.3     1  UNL1        0.0743
      4 N         143.5979  141.7160  165.8400 N.3     1  UNL1       -0.2665
      5 C         143.4054  142.4945  167.1078 C.3     1  UNL1        0.1098
      6 C         142.8388  141.8213  168.3225 C.3     1  UNL1        0.1948
      7 F         142.6463  142.5996  169.5902 F       1  UNL1       -0.2340
      8 C         142.7584  138.7826  170.3054 C.3     1  UNL1        0.1149
      9 N         141.8979  139.6964  169.4843 N.am    1  UNL1       -0.2763
     10 C         140.4705  139.9371  169.8780 C.2     1  UNL1        0.2301
     11 O         139.9038  139.2639  171.0927 O.2     1  UNL1       -0.2745
     12 C         139.6100  140.8509  169.0569 C.3     1  UNL1        0.1116
     13 C         139.2890  140.5012  167.6339 C.ar    1  UNL1       -0.0130
     14 C         139.6287  141.4595  166.5311 C.ar    1  UNL1       -0.0022
     15 C         139.3077  141.1098  165.1083 C.ar    1  UNL1        0.0190
     16 C         138.6470  139.8017  164.7882 C.ar    1  UNL1        0.0862
     17 C         138.3073  138.8434  165.8909 C.ar    1  UNL1        0.0190
     18 C         138.6283  139.1931  167.3138 C.ar    1  UNL1       -0.0022
     19 N         138.3261  139.4520  163.3652 N.ar    1  UNL1       -0.1886
     20 C         138.5042  138.1066  162.7263 C.ar    1  UNL1        0.2258
     21 N         138.0589  138.2093  161.2976 N.ar    1  UNL1       -0.1045
     22 N         137.6055  139.6182  161.0536 N.ar    1  UNL1       -0.0222
     23 N         137.7707  140.3862  162.3314 N.ar    1  UNL1       -0.0385
     24 C         144.1646  142.3893  164.6253 C.3     1  UNL1        0.0992
     25 C         143.2628  143.1540  163.7023 C.ar    1  UNL1       -0.0062
     26 C         143.5489  143.1857  162.2302 C.ar    1  UNL1       -0.0030
     27 C         142.6471  143.9505  161.3071 C.ar    1  UNL1        0.0036
     28 C         141.4592  144.6835  161.8563 C.ar    1  UNL1        0.0714
     29 C         141.1731  144.6517  163.3284 C.ar    1  UNL1        0.0036
     30 C         142.0748  143.8870  164.2514 C.ar    1  UNL1       -0.0030
     31 C         140.5574  145.4482  160.9333 C.3     1  UNL1        0.4186
     32 F         139.6556  146.2129  160.0103 F       1  UNL1       -0.1659
     33 F         141.4802  145.1540  159.7879 F       1  UNL1       -0.1659
     34 F         139.6346  145.7424  162.0786 F       1  UNL1       -0.1659
@<TRIPOS>BOND
     1     8     9    1
     2     9    10   am
     3    10    11    2
     4    10    12    1
     5    12    13    1
     6    13    14   ar
     7    14    15   ar
     8    15    16   ar
     9    16    19    1
    10    19    20   ar
    11    20    21   ar
    12    21    22   ar
    13    22    23   ar
    14    16    17   ar
    15    17    18   ar
    16     1     9    1
    17     1     2    1
    18     2     3    1
    19     3     4    1
    20     4    24    1
    21    24    25    1
    22    25    26   ar
    23    26    27   ar
    24    27    28   ar
    25    28    31    1
    26    31    32    1
    27    31    33    1
    28    31    34    1
    29    28    29   ar
    30    29    30   ar
    31     4     5    1
    32     5     6    1
    33     6     7    1
    34    18    13   ar
    35     6     1    1
    36    23    19   ar
    37    30    25   ar
@<TRIPOS>MOLECULE
*****
 34 37 0 0 0
SMALL
GASTEIGER

@<TRIPOS>ATOM
      1 C         142.3620  140.2763  159.2921 C.3     1  UNL1        0.1106
      2 C         142.5439  139.0508  160.1377 C.3     1  UNL1        0.0400
      3 C         141.3682  138.4489  160.8486 C.3     1  UNL1        0.0743
      4 N         140.0106  139.0724  160.7139 N.3     1  UNL1       -0.2665
      5 C         139.8287  140.2979  159.8683 C.3     1  UNL1        0.1098
      6 C         141.0043  140.8999  159.1574 C.3     1  UNL1        0.1948
      7 F         140.8224  142.1254  158.3118 F       1  UNL1       -0.2340
      8 C         144.0794  140.2271  157.3433 C.3     1  UNL1        0.1149
      9 N         143.5376  140.8783  158.5811 N.am    1  UNL1       -0.2763
     10 C         144.1716  142.1315  159.1081 C.2     1  UNL1        0.2301
     11 O         145.3472  142.7335  158.3972 O.2     1  UNL1       -0.2745
     12 C         143.6298  142.7827  160.3460 C.3     1  UNL1        0.1116
     13 C         143.5903  142.0216  161.6380 C.ar    1  UNL1       -0.0130
     14 C         142.3241  141.9713  162.4404 C.ar    1  UNL1       -0.0022
     15 C         142.2846  141.2101  163.7324 C.ar    1  UNL1        0.0190
     16 C         143.5115  140.4993  164.2218 C.ar    1  UNL1        0.0862
     17 C         144.7778  140.5496  163.4194 C.ar    1  UNL1        0.0190
     18 C         144.8172  141.3108  162.1274 C.ar    1  UNL1       -0.0022
     19 N         143.4720  139.7382  165.5138 N.ar    1  UNL1       -0.1886
     20 C         142.7638  140.1629  166.7661 C.ar    1  UNL1        0.2258
     21 N         142.9879  139.1060  167.8066 N.ar    1  UNL1       -0.1045
     22 N         143.8346  138.0280  167.1973 N.ar    1  UNL1       -0.0222
     23 N         144.1338  138.4187  165.7804 N.ar    1  UNL1       -0.0385
     24 C         138.8349  138.4704  161.4249 C.3     1  UNL1        0.0992
     25 C         138.6794  138.6539  162.9054 C.ar    1  UNL1       -0.0062
     26 C         138.2882  139.9922  163.4583 C.ar    1  UNL1       -0.0030
     27 C         138.1327  140.1757  164.9390 C.ar    1  UNL1        0.0036
     28 C         138.3684  139.0207  165.8667 C.ar    1  UNL1        0.0714
     29 C         138.7597  137.6823  165.3137 C.ar    1  UNL1        0.0036
     30 C         138.9152  137.4989  163.8331 C.ar    1  UNL1       -0.0030
     31 C         138.2129  139.2041  167.3472 C.3     1  UNL1        0.4186
     32 F         138.0575  139.3875  168.8278 F       1  UNL1       -0.1659
     33 F         139.3952  140.1272  167.3570 F       1  UNL1       -0.1659
     34 F         137.0307  138.2810  167.3374 F       1  UNL1       -0.1659
@<TRIPOS>BOND
     1     8     9    1
     2     9    10   am
     3    10    11    2
     4    10    12    1
     5    12    13    1
     6    13    14   ar
     7    14    15   ar
     8    15    16   ar
     9    16    19    1
    10    19    20   ar
    11    20    21   ar
    12    21    22   ar
    13    22    23   ar
    14    16    17   ar
    15    17    18   ar
    16     1     9    1
    17     1     2    1
    18     2     3    1
    19     3     4    1
    20     4    24    1
    21    24    25    1
    22    25    26   ar
    23    26    27   ar
    24    27    28   ar
    25    28    31    1
    26    31    32    1
    27    31    33    1
    28    31    34    1
    29    28    29   ar
    30    29    30   ar
    31     4     5    1
    32     5     6    1
    33     6     7    1
    34    18    13   ar
    35     6     1    1
    36    23    19   ar
    37    30    25   ar
@<TRIPOS>MOLECULE
*****
 34 37 0 0 0
SMALL
GASTEIGER

@<TRIPOS>ATOM
      1 C         141.2327  140.8512  160.6090 C.3     1  UNL1        0.1106
      2 C         142.5148  140.0745  160.5544 C.3     1  UNL1        0.0400
      3 C         143.4740  140.1283  161.7064 C.3     1  UNL1        0.0743
      4 N         143.1511  140.9588  162.9130 N.3     1  UNL1       -0.2665
      5 C         141.8690  141.7356  162.9677 C.3     1  UNL1        0.1098
      6 C         140.9098  141.6817  161.8157 C.3     1  UNL1        0.1948
      7 F         139.6277  142.4584  161.8703 F       1  UNL1       -0.2340
      8 C         140.1170  141.9857  158.5552 C.3     1  UNL1        0.1149
      9 N         140.2736  140.7974  159.4570 N.am    1  UNL1       -0.2763
     10 C         139.4709  139.5551  159.2068 C.2     1  UNL1        0.2301
     11 O         138.5117  139.5013  158.0548 O.2     1  UNL1       -0.2745
     12 C         139.6274  138.3667  160.1086 C.3     1  UNL1        0.1116
     13 C         139.3486  138.4973  161.5767 C.ar    1  UNL1       -0.0130
     14 C         138.2308  139.3771  162.0524 C.ar    1  UNL1       -0.0022
     15 C         137.9520  139.5077  163.5205 C.ar    1  UNL1        0.0190
     16 C         138.7911  138.7585  164.5128 C.ar    1  UNL1        0.0862
     17 C         139.9089  137.8787  164.0370 C.ar    1  UNL1        0.0190
     18 C         140.1876  137.7481  162.5690 C.ar    1  UNL1       -0.0022
     19 N         138.5123  138.8891  165.9809 N.ar    1  UNL1       -0.1886
     20 C         139.2899  139.7234  166.9552 C.ar    1  UNL1        0.2258
     21 N         138.6652  139.5583  168.3089 N.ar    1  UNL1       -0.1045
     22 N         137.5014  138.6220  168.1712 N.ar    1  UNL1       -0.0222
     23 N         137.4069  138.2084  166.7324 N.ar    1  UNL1       -0.0385
     24 C         144.1103  141.0127  164.0650 C.3     1  UNL1        0.0992
     25 C         143.5995  140.9107  165.4716 C.ar    1  UNL1       -0.0062
     26 C         143.3990  142.1527  166.2885 C.ar    1  UNL1       -0.0030
     27 C         142.8882  142.0508  167.6952 C.ar    1  UNL1        0.0036
     28 C         142.5779  140.7069  168.2849 C.ar    1  UNL1        0.0714
     29 C         142.7784  139.4650  167.4680 C.ar    1  UNL1        0.0036
     30 C         143.2892  139.5669  166.0613 C.ar    1  UNL1       -0.0030
     31 C         142.0671  140.6050  169.6916 C.3     1  UNL1        0.4186
     32 F         141.5563  140.5031  171.0982 F       1  UNL1       -0.1659
     33 F         141.7739  139.1493  169.4796 F       1  UNL1       -0.1659
     34 F         142.3602  142.0607  169.9035 F       1  UNL1       -0.1659
@<TRIPOS>BOND
     1     8     9    1
     2     9    10   am
     3    10    11    2
     4    10    12    1
     5    12    13    1
     6    13    14   ar
     7    14    15   ar
     8    15    16   ar
     9    16    19    1
    10    19    20   ar
    11    20    21   ar
    12    21    22   ar
    13    22    23   ar
    14    16    17   ar
    15    17    18   ar
    16     1     9    1
    17     1     2    1
    18     2     3    1
    19     3     4    1
    20     4    24    1
    21    24    25    1
    22    25    26   ar
    23    26    27   ar
    24    27    28   ar
    25    28    31    1
    26    31    32    1
    27    31    33    1
    28    31    34    1
    29    28    29   ar
    30    29    30   ar
    31     4     5    1
    32     5     6    1
    33     6     7    1
    34    18    13   ar
    35     6     1    1
    36    23    19   ar
    37    30    25   ar
@<TRIPOS>MOLECULE
*****
 34 37 0 0 0
SMALL
GASTEIGER

@<TRIPOS>ATOM
      1 C         141.2071  142.2172  159.2568 C.3     1  UNL1        0.1106
      2 C         139.8089  141.8176  158.8893 C.3     1  UNL1        0.0400
      3 C         139.1612  140.6461  159.5661 C.3     1  UNL1        0.0743
      4 N         139.9118  139.8742  160.6104 N.3     1  UNL1       -0.2665
      5 C         141.3101  140.2737  160.9780 C.3     1  UNL1        0.1098
      6 C         141.9578  141.4452  160.3012 C.3     1  UNL1        0.1948
      7 F         143.3561  141.8448  160.6687 F       1  UNL1       -0.2340
      8 C         142.8126  143.1652  157.4475 C.3     1  UNL1        0.1149
      9 N         141.8548  143.3887  158.5800 N.am    1  UNL1       -0.2763
     10 C         141.5446  144.7838  159.0357 C.2     1  UNL1        0.2301
     11 O         142.1923  145.9553  158.3589 O.2     1  UNL1       -0.2745
     12 C         140.5868  145.0073  160.1682 C.3     1  UNL1        0.1116
     13 C         140.9107  144.4885  161.5380 C.ar    1  UNL1       -0.0130
     14 C         139.8657  143.7610  162.3309 C.ar    1  UNL1       -0.0022
     15 C         140.1896  143.2422  163.7005 C.ar    1  UNL1        0.0190
     16 C         141.5585  143.4509  164.2772 C.ar    1  UNL1        0.0862
     17 C         142.6035  144.1784  163.4843 C.ar    1  UNL1        0.0190
     18 C         142.2796  144.6971  162.1147 C.ar    1  UNL1       -0.0022
     19 N         141.8824  142.9321  165.6469 N.ar    1  UNL1       -0.1886
     20 C         140.8925  142.6361  166.7344 C.ar    1  UNL1        0.2258
     21 N         141.6512  142.1393  167.9292 N.ar    1  UNL1       -0.1045
     22 N         143.1101  142.1282  167.5800 N.ar    1  UNL1       -0.0222
     23 N         143.2528  142.6181  166.1695 N.ar    1  UNL1       -0.0385
     24 C         139.2641  138.7026  161.2872 C.3     1  UNL1        0.0992
     25 C         138.9510  138.7622  162.7529 C.ar    1  UNL1       -0.0062
     26 C         139.1933  137.5631  163.6209 C.ar    1  UNL1       -0.0030
     27 C         138.8802  137.6227  165.0867 C.ar    1  UNL1        0.0036
     28 C         138.3247  138.8813  165.6844 C.ar    1  UNL1        0.0714
     29 C         138.0824  140.0804  164.8163 C.ar    1  UNL1        0.0036
     30 C         138.3955  140.0209  163.3506 C.ar    1  UNL1       -0.0030
     31 C         138.0116  138.9409  167.1501 C.3     1  UNL1        0.4186
     32 F         137.6985  139.0005  168.6158 F       1  UNL1       -0.1659
     33 F         137.0619  137.7904  166.9940 F       1  UNL1       -0.1659
     34 F         138.9613  140.0914  167.3062 F       1  UNL1       -0.1659
@<TRIPOS>BOND
     1     8     9    1
     2     9    10   am
     3    10    11    2
     4    10    12    1
     5    12    13    1
     6    13    14   ar
     7    14    15   ar
     8    15    16   ar
     9    16    19    1
    10    19    20   ar
    11    20    21   ar
    12    21    22   ar
    13    22    23   ar
    14    16    17   ar
    15    17    18   ar
    16     1     9    1
    17     1     2    1
    18     2     3    1
    19     3     4    1
    20     4    24    1
    21    24    25    1
    22    25    26   ar
    23    26    27   ar
    24    27    28   ar
    25    28    31    1
    26    31    32    1
    27    31    33    1
    28    31    34    1
    29    28    29   ar
    30    29    30   ar
    31     4     5    1
    32     5     6    1
    33     6     7    1
    34    18    13   ar
    35     6     1    1
    36    23    19   ar
    37    30    25   ar
@<TRIPOS>MOLECULE
*****
 34 37 0 0 0
SMALL
GASTEIGER

@<TRIPOS>ATOM
      1 C         141.6696  140.0980  166.7552 C.3     1  UNL1        0.1106
      2 C         142.4180  138.9282  166.1883 C.3     1  UNL1        0.0400
      3 C         143.5358  139.1539  165.2138 C.3     1  UNL1        0.0743
      4 N         143.9051  140.5494  164.8062 N.3     1  UNL1       -0.2665
      5 C         143.1567  141.7192  165.3730 C.3     1  UNL1        0.1098
      6 C         142.0389  141.4936  166.3475 C.3     1  UNL1        0.1948
      7 F         141.2904  142.6633  166.9144 F       1  UNL1       -0.2340
      8 C         140.7885  140.0595  169.1989 C.3     1  UNL1        0.1149
      9 N         140.5518  139.8723  167.7296 N.am    1  UNL1       -0.2763
     10 C         139.1973  139.4594  167.2347 C.2     1  UNL1        0.2301
     11 O         138.0795  139.2337  168.2092 O.2     1  UNL1       -0.2745
     12 C         138.9606  139.2722  165.7654 C.3     1  UNL1        0.1116
     13 C         139.0734  140.4415  164.8326 C.ar    1  UNL1       -0.0130
     14 C         139.8932  140.3266  163.5818 C.ar    1  UNL1       -0.0022
     15 C         140.0060  141.4959  162.6490 C.ar    1  UNL1        0.0190
     16 C         139.2989  142.7800  162.9671 C.ar    1  UNL1        0.0862
     17 C         138.4791  142.8948  164.2179 C.ar    1  UNL1        0.0190
     18 C         138.3663  141.7256  165.1507 C.ar    1  UNL1       -0.0022
     19 N         139.4118  143.9493  162.0342 N.ar    1  UNL1       -0.1886
     20 C         140.0429  143.9339  160.6736 C.ar    1  UNL1        0.2258
     21 N         139.9345  145.3143  160.0967 N.ar    1  UNL1       -0.1045
     22 N         139.2363  146.1828  161.1008 N.ar    1  UNL1       -0.0222
     23 N         138.9132  145.3391  162.2983 N.ar    1  UNL1       -0.0385
     24 C         145.0229  140.7751  163.8317 C.3     1  UNL1        0.0992
     25 C         144.7189  140.9945  162.3794 C.ar    1  UNL1       -0.0062
     26 C         144.1460  139.8792  161.5562 C.ar    1  UNL1       -0.0030
     27 C         143.8420  140.0986  160.1038 C.ar    1  UNL1        0.0036
     28 C         144.1109  141.4334  159.4746 C.ar    1  UNL1        0.0714
     29 C         144.6838  142.5488  160.2978 C.ar    1  UNL1        0.0036
     30 C         144.9879  142.3294  161.7502 C.ar    1  UNL1       -0.0030
     31 C         143.8069  141.6529  158.0222 C.3     1  UNL1        0.4186
     32 F         143.5029  141.8724  156.5699 F       1  UNL1       -0.1659
     33 F         143.5539  140.1841  157.8532 F       1  UNL1       -0.1659
     34 F         144.0599  143.1217  158.1912 F       1  UNL1       -0.1659
@<TRIPOS>BOND
     1     8     9    1
     2     9    10   am
     3    10    11    2
     4    10    12    1
     5    12    13    1
     6    13    14   ar
     7    14    15   ar
     8    15    16   ar
     9    16    19    1
    10    19    20   ar
    11    20    21   ar
    12    21    22   ar
    13    22    23   ar
    14    16    17   ar
    15    17    18   ar
    16     1     9    1
    17     1     2    1
    18     2     3    1
    19     3     4    1
    20     4    24    1
    21    24    25    1
    22    25    26   ar
    23    26    27   ar
    24    27    28   ar
    25    28    31    1
    26    31    32    1
    27    31    33    1
    28    31    34    1
    29    28    29   ar
    30    29    30   ar
    31     4     5    1
    32     5     6    1
    33     6     7    1
    34    18    13   ar
    35     6     1    1
    36    23    19   ar
    37    30    25   ar
@<TRIPOS>MOLECULE
*****
 34 37 0 0 0
SMALL
GASTEIGER

@<TRIPOS>ATOM
      1 C         139.9945  141.2390  160.3719 C.3     1  UNL1        0.1106
      2 C         138.8728  141.4797  161.3382 C.3     1  UNL1        0.0400
      3 C         139.0934  142.3458  162.5429 C.3     1  UNL1        0.0743
      4 N         140.4358  142.9711  162.7812 N.3     1  UNL1       -0.2665
      5 C         141.5576  142.7304  161.8149 C.3     1  UNL1        0.1098
      6 C         141.3370  141.8644  160.6103 C.3     1  UNL1        0.1948
      7 F         142.4587  141.6236  159.6440 F       1  UNL1       -0.2340
      8 C         138.9992  140.9004  157.9960 C.3     1  UNL1        0.1149
      9 N         139.7738  140.3729  159.1672 N.am    1  UNL1       -0.2763
     10 C         140.3277  138.9793  159.1338 C.2     1  UNL1        0.2301
     11 O         140.1070  138.1132  157.9292 O.2     1  UNL1       -0.2745
     12 C         141.1022  138.4518  160.3050 C.3     1  UNL1        0.1116
     13 C         140.4881  138.4559  161.6736 C.ar    1  UNL1       -0.0130
     14 C         139.0982  137.9286  161.8735 C.ar    1  UNL1       -0.0022
     15 C         138.4841  137.9327  163.2420 C.ar    1  UNL1        0.0190
     16 C         139.2600  138.4642  164.4106 C.ar    1  UNL1        0.0862
     17 C         140.6499  138.9915  164.2107 C.ar    1  UNL1        0.0190
     18 C         141.2640  138.9874  162.8422 C.ar    1  UNL1       -0.0022
     19 N         138.6459  138.4683  165.7792 N.ar    1  UNL1       -0.1886
     20 C         138.9517  139.4405  166.8799 C.ar    1  UNL1        0.2258
     21 N         138.1130  139.0741  168.0683 N.ar    1  UNL1       -0.1045
     22 N         137.2888  137.8754  167.7020 N.ar    1  UNL1       -0.0222
     23 N         137.6182  137.5011  166.2873 N.ar    1  UNL1       -0.0385
     24 C         140.6565  143.8372  163.9859 C.3     1  UNL1        0.0992
     25 C         141.2267  143.2455  165.2407 C.ar    1  UNL1       -0.0062
     26 C         142.6744  142.8569  165.2961 C.ar    1  UNL1       -0.0030
     27 C         143.2447  142.2651  166.5510 C.ar    1  UNL1        0.0036
     28 C         142.3672  142.0620  167.7504 C.ar    1  UNL1        0.0714
     29 C         140.9194  142.4506  167.6950 C.ar    1  UNL1        0.0036
     30 C         140.3492  143.0423  166.4402 C.ar    1  UNL1       -0.0030
     31 C         142.9374  141.4702  169.0053 C.3     1  UNL1        0.4186
     32 F         143.5076  140.8785  170.2601 F       1  UNL1       -0.1659
     33 F         143.9277  142.5940  169.0852 F       1  UNL1       -0.1659
     34 F         141.9471  140.3465  168.9254 F       1  UNL1       -0.1659
@<TRIPOS>BOND
     1     8     9    1
     2     9    10   am
     3    10    11    2
     4    10    12    1
     5    12    13    1
     6    13    14   ar
     7    14    15   ar
     8    15    16   ar
     9    16    19    1
    10    19    20   ar
    11    20    21   ar
    12    21    22   ar
    13    22    23   ar
    14    16    17   ar
    15    17    18   ar
    16     1     9    1
    17     1     2    1
    18     2     3    1
    19     3     4    1
    20     4    24    1
    21    24    25    1
    22    25    26   ar
    23    26    27   ar
    24    27    28   ar
    25    28    31    1
    26    31    32    1
    27    31    33    1
    28    31    34    1
    29    28    29   ar
    30    29    30   ar
    31     4     5    1
    32     5     6    1
    33     6     7    1
    34    18    13   ar
    35     6     1    1
    36    23    19   ar
    37    30    25   ar
@<TRIPOS>MOLECULE
*****
 34 37 0 0 0
SMALL
GASTEIGER

@<TRIPOS>ATOM
      1 C         140.9403  139.4694  160.0181 C.3     1  UNL1        0.1106
      2 C         142.1445  140.3630  159.9826 C.3     1  UNL1        0.0400
      3 C         143.1728  140.2796  161.0715 C.3     1  UNL1        0.0743
      4 N         142.9969  139.3025  162.1958 N.3     1  UNL1       -0.2665
      5 C         141.7927  138.4088  162.2314 C.3     1  UNL1        0.1098
      6 C         140.7644  138.4922  161.1426 C.3     1  UNL1        0.1948
      7 F         139.5602  137.5986  161.1781 F       1  UNL1       -0.2340
      8 C         139.9008  138.5339  157.8285 C.3     1  UNL1        0.1149
      9 N         139.9120  139.5528  158.9293 N.am    1  UNL1       -0.2763
     10 C         138.8948  140.6553  158.9412 C.2     1  UNL1        0.2301
     11 O         137.8665  140.7388  157.8523 O.2     1  UNL1       -0.2745
     12 C         138.9060  141.6742  160.0419 C.3     1  UNL1        0.1116
     13 C         138.8293  141.2327  161.4735 C.ar    1  UNL1       -0.0130
     14 C         139.8323  141.7365  162.4685 C.ar    1  UNL1       -0.0022
     15 C         139.7556  141.2950  163.8999 C.ar    1  UNL1        0.0190
     16 C         138.6758  140.3497  164.3364 C.ar    1  UNL1        0.0862
     17 C         137.6728  139.8459  163.3414 C.ar    1  UNL1        0.0190
     18 C         137.7495  140.2874  161.9099 C.ar    1  UNL1       -0.0022
     19 N         138.5991  139.9082  165.7679 N.ar    1  UNL1       -0.1886
     20 C         139.4564  140.4091  166.8922 C.ar    1  UNL1        0.2258
     21 N         139.0388  139.6988  168.1456 N.ar    1  UNL1       -0.1045
     22 N         137.9233  138.7588  167.7960 N.ar    1  UNL1       -0.0222
     23 N         137.6516  138.8882  166.3265 N.ar    1  UNL1       -0.0385
     24 C         144.0252  139.2190  163.2847 C.3     1  UNL1        0.0992
     25 C         143.6535  139.5670  164.6956 C.ar    1  UNL1       -0.0062
     26 C         143.4304  140.9994  165.0808 C.ar    1  UNL1       -0.0030
     27 C         143.0586  141.3474  166.4918 C.ar    1  UNL1        0.0036
     28 C         142.9101  140.2630  167.5175 C.ar    1  UNL1        0.0714
     29 C         143.1332  138.8306  167.1322 C.ar    1  UNL1        0.0036
     30 C         143.5049  138.4826  165.7213 C.ar    1  UNL1       -0.0030
     31 C         142.5384  140.6110  168.9284 C.3     1  UNL1        0.4186
     32 F         142.1667  140.9590  170.3393 F       1  UNL1       -0.1659
     33 F         142.3965  142.0517  168.5357 F       1  UNL1       -0.1659
     34 F         142.6803  139.1703  169.3211 F       1  UNL1       -0.1659
@<TRIPOS>BOND
     1     8     9    1
     2     9    10   am
     3    10    11    2
     4    10    12    1
     5    12    13    1
     6    13    14   ar
     7    14    15   ar
     8    15    16   ar
     9    16    19    1
    10    19    20   ar
    11    20    21   ar
    12    21    22   ar
    13    22    23   ar
    14    16    17   ar
    15    17    18   ar
    16     1     9    1
    17     1     2    1
    18     2     3    1
    19     3     4    1
    20     4    24    1
    21    24    25    1
    22    25    26   ar
    23    26    27   ar
    24    27    28   ar
    25    28    31    1
    26    31    32    1
    27    31    33    1
    28    31    34    1
    29    28    29   ar
    30    29    30   ar
    31     4     5    1
    32     5     6    1
    33     6     7    1
    34    18    13   ar
    35     6     1    1
    36    23    19   ar
    37    30    25   ar
