@<TRIPOS>MOLECULE
*****
 33 37 0 0 0
SMALL
GASTEIGER

@<TRIPOS>ATOM
      1 C         138.0802  140.5385  161.8118 C.3     1  UNL1        0.0466
      2 C         137.3803  141.4247  162.7991 C.3     1  UNL1        0.0211
      3 C         137.8066  142.8541  162.9579 C.3     1  UNL1        0.0722
      4 N         138.9330  143.3972  162.1294 N.3     1  UNL1       -0.2724
      5 C         139.6329  142.5109  161.1421 C.3     1  UNL1        0.0722
      6 C         139.2065  141.0816  160.9833 C.3     1  UNL1        0.0211
      7 C         137.6538  139.1092  161.6530 C.3     1  UNL1        0.2071
      8 O         138.1950  138.0581  162.5762 O.3     1  UNL1       -0.4602
      9 C         144.0072  137.8491  161.4539 C.3     1  UNL1        0.1305
     10 N         142.8832  138.1295  162.4068 N.ar    1  UNL1       -0.3228
     11 C         141.4195  137.9927  162.1085 C.ar    1  UNL1        0.0806
     12 C         140.6573  138.3745  163.3426 C.ar    1  UNL1        0.0718
     13 C         139.1876  138.4309  163.6373 C.ar    1  UNL1        0.2262
     14 N         138.7104  138.8600  164.9931 N.ar    1  UNL1       -0.2116
     15 C         139.7030  139.2327  166.0542 C.ar    1  UNL1        0.0844
     16 C         139.2258  139.6618  167.4100 C.ar    1  UNL1        0.0192
     17 C         140.2184  140.0345  168.4711 C.ar    1  UNL1        0.0015
     18 C         141.6880  139.9782  168.1764 C.ar    1  UNL1        0.0001
     19 C         142.1652  139.5490  166.8206 C.ar    1  UNL1        0.0015
     20 C         141.1727  139.1763  165.7596 C.ar    1  UNL1        0.0194
     21 C         141.6498  138.7472  164.4037 C.ar    1  UNL1        0.0246
     22 C         143.0255  138.5958  163.8254 C.ar    1  UNL1        0.0762
     23 C         139.3594  144.8265  162.2882 C.3     1  UNL1        0.0768
     24 C         140.3276  145.2045  163.3697 C.3     1  UNL1        0.0437
     25 C         141.5793  144.4023  163.5698 C.ar    1  UNL1       -0.0208
     26 C         142.8260  144.7570  162.8150 C.ar    1  UNL1       -0.0045
     27 C         144.0777  143.9548  163.0151 C.ar    1  UNL1       -0.0022
     28 C         144.0825  142.7980  163.9700 C.ar    1  UNL1        0.0069
     29 C         142.8356  142.4434  164.7248 C.ar    1  UNL1       -0.0022
     30 C         141.5840  143.2456  164.5247 C.ar    1  UNL1       -0.0045
     31 C         145.3340  141.9959  164.1702 C.3     1  UNL1        0.1636
     32 O         146.3240  141.8591  163.0517 O.3     1  UNL1       -0.3772
     33 H         145.9236  141.3566  162.3250 H       1  UNL1        0.2109
@<TRIPOS>BOND
     1     9    10    1
     2    10    11   ar
     3    11    12   ar
     4    12    13   ar
     5    13     8    1
     6     8     7    1
     7     7     1    1
     8     1     2    1
     9     2     3    1
    10     3     4    1
    11     4    23    1
    12    23    24    1
    13    24    25    1
    14    25    26   ar
    15    26    27   ar
    16    27    28   ar
    17    28    31    1
    18    31    32    1
    19    28    29   ar
    20    29    30   ar
    21     4     5    1
    22     5     6    1
    23    13    14   ar
    24    14    15   ar
    25    15    16   ar
    26    16    17   ar
    27    17    18   ar
    28    18    19   ar
    29    19    20   ar
    30    20    21   ar
    31    21    22   ar
    32    22    10   ar
    33    21    12   ar
    34     6     1    1
    35    20    15   ar
    36    30    25   ar
    37    32    33    1
@<TRIPOS>MOLECULE
*****
 33 37 0 0 0
SMALL
GASTEIGER

@<TRIPOS>ATOM
      1 C         139.5913  137.6210  164.4011 C.3     1  UNL1        0.0466
      2 C         139.1598  137.8260  162.9792 C.3     1  UNL1        0.0211
      3 C         140.1882  137.9725  161.8970 C.3     1  UNL1        0.0722
      4 N         141.6481  137.9139  162.2368 N.3     1  UNL1       -0.2724
      5 C         142.0795  137.7089  163.6587 C.3     1  UNL1        0.0722
      6 C         141.0512  137.5624  164.7408 C.3     1  UNL1        0.0211
      7 C         138.5630  137.4745  165.4832 C.3     1  UNL1        0.2071
      8 O         138.0299  138.6907  166.1808 O.3     1  UNL1       -0.4602
      9 C         142.7221  140.9585  168.9959 C.3     1  UNL1        0.1305
     10 N         141.6488  141.0913  167.9565 N.ar    1  UNL1       -0.3228
     11 C         140.5981  140.0691  167.6384 C.ar    1  UNL1        0.0806
     12 C         139.7377  140.6157  166.5380 C.ar    1  UNL1        0.0718
     13 C         138.5487  140.0508  165.8188 C.ar    1  UNL1        0.2262
     14 N         137.8786  140.8458  164.7377 N.ar    1  UNL1       -0.2116
     15 C         138.3975  142.2059  164.3758 C.ar    1  UNL1        0.0844
     16 C         137.7274  143.0010  163.2947 C.ar    1  UNL1        0.0192
     17 C         138.2463  144.3610  162.9327 C.ar    1  UNL1        0.0015
     18 C         139.4352  144.9260  163.6519 C.ar    1  UNL1        0.0001
     19 C         140.1053  144.1310  164.7330 C.ar    1  UNL1        0.0015
     20 C         139.5865  142.7709  165.0949 C.ar    1  UNL1        0.0194
     21 C         140.2565  141.9758  166.1761 C.ar    1  UNL1        0.0246
     22 C         141.4376  142.2698  167.0527 C.ar    1  UNL1        0.0762
     23 C         142.6764  138.0604  161.1547 C.3     1  UNL1        0.0768
     24 C         143.9431  138.8182  161.4215 C.3     1  UNL1        0.0437
     25 C         143.8817  140.2067  161.9860 C.ar    1  UNL1       -0.0208
     26 C         144.9146  140.6608  162.9743 C.ar    1  UNL1       -0.0045
     27 C         144.8532  142.0492  163.5388 C.ar    1  UNL1       -0.0022
     28 C         143.7589  142.9834  163.1149 C.ar    1  UNL1        0.0069
     29 C         142.7260  142.5293  162.1265 C.ar    1  UNL1       -0.0022
     30 C         142.7874  141.1409  161.5620 C.ar    1  UNL1       -0.0045
     31 C         143.6975  144.3718  163.6793 C.3     1  UNL1        0.1636
     32 O         143.9269  145.5551  162.7866 O.3     1  UNL1       -0.3772
     33 H         144.8440  145.5488  162.4706 H       1  UNL1        0.2109
@<TRIPOS>BOND
     1     9    10    1
     2    10    11   ar
     3    11    12   ar
     4    12    13   ar
     5    13     8    1
     6     8     7    1
     7     7     1    1
     8     1     2    1
     9     2     3    1
    10     3     4    1
    11     4    23    1
    12    23    24    1
    13    24    25    1
    14    25    26   ar
    15    26    27   ar
    16    27    28   ar
    17    28    31    1
    18    31    32    1
    19    28    29   ar
    20    29    30   ar
    21     4     5    1
    22     5     6    1
    23    13    14   ar
    24    14    15   ar
    25    15    16   ar
    26    16    17   ar
    27    17    18   ar
    28    18    19   ar
    29    19    20   ar
    30    20    21   ar
    31    21    22   ar
    32    22    10   ar
    33    21    12   ar
    34     6     1    1
    35    20    15   ar
    36    30    25   ar
    37    32    33    1
@<TRIPOS>MOLECULE
*****
 33 37 0 0 0
SMALL
GASTEIGER

@<TRIPOS>ATOM
      1 C         142.2986  144.3855  162.8327 C.3     1  UNL1        0.0466
      2 C         141.3897  144.9409  163.8888 C.3     1  UNL1        0.0211
      3 C         139.9214  144.6365  163.8506 C.3     1  UNL1        0.0722
      4 N         139.3620  143.7766  162.7562 N.3     1  UNL1       -0.2724
      5 C         140.2709  143.2211  161.7001 C.3     1  UNL1        0.0722
      6 C         141.7391  143.5255  161.7383 C.3     1  UNL1        0.0211
      7 C         143.7668  144.6899  162.8709 C.3     1  UNL1        0.2071
      8 O         144.7204  143.7087  163.4856 O.3     1  UNL1       -0.4602
      9 C         144.1092  138.1601  161.5047 C.3     1  UNL1        0.1305
     10 N         143.9866  139.1564  162.6194 N.ar    1  UNL1       -0.3228
     11 C         144.3306  140.6143  162.5407 C.ar    1  UNL1        0.0806
     12 C         144.0550  141.2286  163.8811 C.ar    1  UNL1        0.0718
     13 C         144.2060  142.6305  164.3928 C.ar    1  UNL1        0.2262
     14 N         143.8426  142.9542  165.8116 N.ar    1  UNL1       -0.2116
     15 C         143.3282  141.8760  166.7188 C.ar    1  UNL1        0.0844
     16 C         142.9648  142.1997  168.1376 C.ar    1  UNL1        0.0192
     17 C         142.4504  141.1215  169.0447 C.ar    1  UNL1        0.0015
     18 C         142.2994  139.7196  168.5330 C.ar    1  UNL1        0.0001
     19 C         142.6628  139.3959  167.1141 C.ar    1  UNL1        0.0015
     20 C         143.1772  140.4741  166.2071 C.ar    1  UNL1        0.0194
     21 C         143.5407  140.1504  164.7882 C.ar    1  UNL1        0.0246
     22 C         143.4983  138.8697  164.0085 C.ar    1  UNL1        0.0762
     23 C         137.8937  143.4721  162.7180 C.3     1  UNL1        0.0768
     24 C         137.3320  142.3781  163.5768 C.3     1  UNL1        0.0437
     25 C         138.0795  141.0867  163.7305 C.ar    1  UNL1       -0.0208
     26 C         139.0353  140.9047  164.8721 C.ar    1  UNL1       -0.0045
     27 C         139.7828  139.6133  165.0259 C.ar    1  UNL1       -0.0022
     28 C         139.5744  138.5039  164.0380 C.ar    1  UNL1        0.0069
     29 C         138.6186  138.6860  162.8964 C.ar    1  UNL1       -0.0022
     30 C         137.8711  139.9774  162.7427 C.ar    1  UNL1       -0.0045
     31 C         140.3218  137.2126  164.1917 C.3     1  UNL1        0.1636
     32 O         141.1487  136.6850  163.0569 O.3     1  UNL1       -0.3772
     33 H         140.5684  136.4495  162.3162 H       1  UNL1        0.2109
@<TRIPOS>BOND
     1     9    10    1
     2    10    11   ar
     3    11    12   ar
     4    12    13   ar
     5    13     8    1
     6     8     7    1
     7     7     1    1
     8     1     2    1
     9     2     3    1
    10     3     4    1
    11     4    23    1
    12    23    24    1
    13    24    25    1
    14    25    26   ar
    15    26    27   ar
    16    27    28   ar
    17    28    31    1
    18    31    32    1
    19    28    29   ar
    20    29    30   ar
    21     4     5    1
    22     5     6    1
    23    13    14   ar
    24    14    15   ar
    25    15    16   ar
    26    16    17   ar
    27    17    18   ar
    28    18    19   ar
    29    19    20   ar
    30    20    21   ar
    31    21    22   ar
    32    22    10   ar
    33    21    12   ar
    34     6     1    1
    35    20    15   ar
    36    30    25   ar
    37    32    33    1
@<TRIPOS>MOLECULE
*****
 33 37 0 0 0
SMALL
GASTEIGER

@<TRIPOS>ATOM
      1 C         143.9574  140.3787  161.8654 C.3     1  UNL1        0.0466
      2 C         142.9577  141.2545  161.1701 C.3     1  UNL1        0.0211
      3 C         142.8734  142.7130  161.5105 C.3     1  UNL1        0.0722
      4 N         143.7888  143.2956  162.5461 N.3     1  UNL1       -0.2724
      5 C         144.7886  142.4197  163.2414 C.3     1  UNL1        0.0722
      6 C         144.8728  140.9613  162.9010 C.3     1  UNL1        0.0211
      7 C         144.0417  138.9203  161.5250 C.3     1  UNL1        0.2071
      8 O         143.4124  137.9017  162.4285 O.3     1  UNL1       -0.4602
      9 C         137.5742  138.4087  161.5660 C.3     1  UNL1        0.1305
     10 N         138.7617  138.5192  162.4759 N.ar    1  UNL1       -0.3228
     11 C         140.1858  138.2269  162.1064 C.ar    1  UNL1        0.0806
     12 C         141.0377  138.4684  163.3172 C.ar    1  UNL1        0.0718
     13 C         142.5148  138.3433  163.5463 C.ar    1  UNL1        0.2262
     14 N         143.0943  138.6597  164.8931 N.ar    1  UNL1       -0.2116
     15 C         142.1967  139.1013  166.0109 C.ar    1  UNL1        0.0844
     16 C         142.7762  139.4178  167.3578 C.ar    1  UNL1        0.0192
     17 C         141.8786  139.8593  168.4754 C.ar    1  UNL1        0.0015
     18 C         140.4015  139.9844  168.2463 C.ar    1  UNL1        0.0001
     19 C         139.8219  139.6680  166.8995 C.ar    1  UNL1        0.0015
     20 C         140.7195  139.2264  165.7818 C.ar    1  UNL1        0.0194
     21 C         140.1401  138.9100  164.4349 C.ar    1  UNL1        0.0246
     22 C         138.7334  138.9414  163.9150 C.ar    1  UNL1        0.0762
     23 C         143.7046  144.7540  162.8865 C.3     1  UNL1        0.0768
     24 C         142.6860  145.2353  163.8768 C.3     1  UNL1        0.0437
     25 C         141.3502  144.5589  163.9678 C.ar    1  UNL1       -0.0208
     26 C         140.1992  145.0581  163.1457 C.ar    1  UNL1       -0.0045
     27 C         138.8634  144.3816  163.2367 C.ar    1  UNL1       -0.0022
     28 C         138.6788  143.2059  164.1498 C.ar    1  UNL1        0.0069
     29 C         139.8299  142.7067  164.9719 C.ar    1  UNL1       -0.0022
     30 C         141.1656  143.3832  164.8809 C.ar    1  UNL1       -0.0045
     31 C         137.3431  142.5294  164.2408 C.3     1  UNL1        0.1636
     32 O         136.8706  141.6491  163.1220 O.3     1  UNL1       -0.3772
     33 H         136.7269  142.1859  162.3269 H       1  UNL1        0.2109
@<TRIPOS>BOND
     1     9    10    1
     2    10    11   ar
     3    11    12   ar
     4    12    13   ar
     5    13     8    1
     6     8     7    1
     7     7     1    1
     8     1     2    1
     9     2     3    1
    10     3     4    1
    11     4    23    1
    12    23    24    1
    13    24    25    1
    14    25    26   ar
    15    26    27   ar
    16    27    28   ar
    17    28    31    1
    18    31    32    1
    19    28    29   ar
    20    29    30   ar
    21     4     5    1
    22     5     6    1
    23    13    14   ar
    24    14    15   ar
    25    15    16   ar
    26    16    17   ar
    27    17    18   ar
    28    18    19   ar
    29    19    20   ar
    30    20    21   ar
    31    21    22   ar
    32    22    10   ar
    33    21    12   ar
    34     6     1    1
    35    20    15   ar
    36    30    25   ar
    37    32    33    1
@<TRIPOS>MOLECULE
*****
 33 37 0 0 0
SMALL
GASTEIGER

@<TRIPOS>ATOM
      1 C         141.3365  144.8504  162.3469 C.3     1  UNL1        0.0466
      2 C         141.5699  143.8148  161.2872 C.3     1  UNL1        0.0211
      3 C         142.8659  143.0605  161.2482 C.3     1  UNL1        0.0722
      4 N         143.9284  143.3419  162.2689 N.3     1  UNL1       -0.2724
      5 C         143.6950  144.3775  163.3286 C.3     1  UNL1        0.0722
      6 C         142.3990  145.1318  163.3676 C.3     1  UNL1        0.0211
      7 C         140.0405  145.6047  162.3859 C.3     1  UNL1        0.2071
      8 O         138.9060  145.1034  163.2295 O.3     1  UNL1       -0.4602
      9 C         137.3503  139.8564  160.9636 C.3     1  UNL1        0.1305
     10 N         137.9026  140.6608  162.1029 N.ar    1  UNL1       -0.3228
     11 C         138.0959  142.1482  162.1200 C.ar    1  UNL1        0.0806
     12 C         138.6713  142.5255  163.4528 C.ar    1  UNL1        0.0718
     13 C         139.0685  143.8492  164.0361 C.ar    1  UNL1        0.2262
     14 N         139.6280  143.9186  165.4261 N.ar    1  UNL1       -0.2116
     15 C         139.7904  142.6644  166.2328 C.ar    1  UNL1        0.0844
     16 C         140.3499  142.7339  167.6228 C.ar    1  UNL1        0.0192
     17 C         140.5123  141.4798  168.4294 C.ar    1  UNL1        0.0015
     18 C         140.1152  140.1561  167.8460 C.ar    1  UNL1        0.0001
     19 C         139.5557  140.0867  166.4561 C.ar    1  UNL1        0.0015
     20 C         139.3933  141.3408  165.6495 C.ar    1  UNL1        0.0194
     21 C         138.8337  141.2714  164.2594 C.ar    1  UNL1        0.0246
     22 C         138.3586  140.1189  163.4252 C.ar    1  UNL1        0.0762
     23 C         145.2244  142.5876  162.2299 C.3     1  UNL1        0.0768
     24 C         145.5119  141.5370  163.2611 C.3     1  UNL1        0.0437
     25 C         144.4769  140.5007  163.5850 C.ar    1  UNL1       -0.0208
     26 C         144.0950  139.4757  162.5586 C.ar    1  UNL1       -0.0045
     27 C         143.0599  138.4395  162.8825 C.ar    1  UNL1       -0.0022
     28 C         142.4067  138.4283  164.2328 C.ar    1  UNL1        0.0069
     29 C         142.7887  139.4533  165.2592 C.ar    1  UNL1       -0.0022
     30 C         143.8237  140.4895  164.9353 C.ar    1  UNL1       -0.0045
     31 C         141.3717  137.3921  164.5567 C.3     1  UNL1        0.1636
     32 O         141.0997  136.2765  163.5916 O.3     1  UNL1       -0.3772
     33 H         140.7170  136.6393  162.7775 H       1  UNL1        0.2109
@<TRIPOS>BOND
     1     9    10    1
     2    10    11   ar
     3    11    12   ar
     4    12    13   ar
     5    13     8    1
     6     8     7    1
     7     7     1    1
     8     1     2    1
     9     2     3    1
    10     3     4    1
    11     4    23    1
    12    23    24    1
    13    24    25    1
    14    25    26   ar
    15    26    27   ar
    16    27    28   ar
    17    28    31    1
    18    31    32    1
    19    28    29   ar
    20    29    30   ar
    21     4     5    1
    22     5     6    1
    23    13    14   ar
    24    14    15   ar
    25    15    16   ar
    26    16    17   ar
    27    17    18   ar
    28    18    19   ar
    29    19    20   ar
    30    20    21   ar
    31    21    22   ar
    32    22    10   ar
    33    21    12   ar
    34     6     1    1
    35    20    15   ar
    36    30    25   ar
    37    32    33    1
@<TRIPOS>MOLECULE
*****
 33 37 0 0 0
SMALL
GASTEIGER

@<TRIPOS>ATOM
      1 C         137.9421  140.2033  162.0266 C.3     1  UNL1        0.0466
      2 C         137.7443  140.5841  163.4639 C.3     1  UNL1        0.0211
      3 C         138.0047  141.9926  163.9094 C.3     1  UNL1        0.0722
      4 N         138.4629  143.0203  162.9175 N.3     1  UNL1       -0.2724
      5 C         138.6607  142.6395  161.4801 C.3     1  UNL1        0.0722
      6 C         138.4003  141.2310  161.0347 C.3     1  UNL1        0.0211
      7 C         137.6818  138.7949  161.5813 C.3     1  UNL1        0.2071
      8 O         138.8307  137.8821  161.2703 O.3     1  UNL1       -0.4602
      9 C         143.2122  139.4500  157.6057 C.3     1  UNL1        0.1305
     10 N         142.7283  139.1688  158.9974 N.ar    1  UNL1       -0.3228
     11 C         141.3380  138.7566  159.3810 C.ar    1  UNL1        0.0806
     12 C         141.3002  138.5834  160.8705 C.ar    1  UNL1        0.0718
     13 C         140.1977  138.1873  161.8073 C.ar    1  UNL1        0.2262
     14 N         140.4621  138.0963  163.2809 N.ar    1  UNL1       -0.2116
     15 C         141.8291  138.4015  163.8179 C.ar    1  UNL1        0.0844
     16 C         142.0935  138.3105  165.2916 C.ar    1  UNL1        0.0192
     17 C         143.4604  138.6157  165.8285 C.ar    1  UNL1        0.0015
     18 C         144.5629  139.0119  164.8918 C.ar    1  UNL1        0.0001
     19 C         144.2985  139.1028  163.4181 C.ar    1  UNL1        0.0015
     20 C         142.9316  138.7976  162.8812 C.ar    1  UNL1        0.0194
     21 C         142.6671  138.8886  161.4074 C.ar    1  UNL1        0.0246
     22 C         143.5498  139.2504  160.2498 C.ar    1  UNL1        0.0762
     23 C         138.7232  144.4288  163.3628 C.3     1  UNL1        0.0768
     24 C         139.7183  144.6990  164.4522 C.3     1  UNL1        0.0437
     25 C         141.1181  144.1725  164.3369 C.ar    1  UNL1       -0.0208
     26 C         141.4363  142.7809  164.7975 C.ar    1  UNL1       -0.0045
     27 C         142.8362  142.2543  164.6821 C.ar    1  UNL1       -0.0022
     28 C         143.9178  143.1195  164.1063 C.ar    1  UNL1        0.0069
     29 C         143.5996  144.5111  163.6457 C.ar    1  UNL1       -0.0022
     30 C         142.1998  145.0376  163.7610 C.ar    1  UNL1       -0.0045
     31 C         145.3176  142.5930  163.9909 C.3     1  UNL1        0.1636
     32 O         145.8348  142.1221  162.6640 O.3     1  UNL1       -0.3772
     33 H         145.3417  141.3345  162.3858 H       1  UNL1        0.2109
@<TRIPOS>BOND
     1     9    10    1
     2    10    11   ar
     3    11    12   ar
     4    12    13   ar
     5    13     8    1
     6     8     7    1
     7     7     1    1
     8     1     2    1
     9     2     3    1
    10     3     4    1
    11     4    23    1
    12    23    24    1
    13    24    25    1
    14    25    26   ar
    15    26    27   ar
    16    27    28   ar
    17    28    31    1
    18    31    32    1
    19    28    29   ar
    20    29    30   ar
    21     4     5    1
    22     5     6    1
    23    13    14   ar
    24    14    15   ar
    25    15    16   ar
    26    16    17   ar
    27    17    18   ar
    28    18    19   ar
    29    19    20   ar
    30    20    21   ar
    31    21    22   ar
    32    22    10   ar
    33    21    12   ar
    34     6     1    1
    35    20    15   ar
    36    30    25   ar
    37    32    33    1
@<TRIPOS>MOLECULE
*****
 33 37 0 0 0
SMALL
GASTEIGER

@<TRIPOS>ATOM
      1 C         144.5826  140.9658  163.3972 C.3     1  UNL1        0.0466
      2 C         144.2438  139.6479  164.0284 C.3     1  UNL1        0.0211
      3 C         143.3873  138.6614  163.2912 C.3     1  UNL1        0.0722
      4 N         142.8697  138.9928  161.9229 N.3     1  UNL1       -0.2724
      5 C         143.2085  140.3107  161.2918 C.3     1  UNL1        0.0722
      6 C         144.0649  141.2972  162.0289 C.3     1  UNL1        0.0211
      7 C         145.4390  141.9522  164.1343 C.3     1  UNL1        0.2071
      8 O         144.8017  143.0062  164.9904 O.3     1  UNL1       -0.4602
      9 C         141.6457  140.0804  169.0604 C.3     1  UNL1        0.1305
     10 N         141.6952  141.0165  167.8893 N.ar    1  UNL1       -0.3228
     11 C         142.9327  141.4610  167.1675 C.ar    1  UNL1        0.0806
     12 C         142.5182  142.3915  166.0665 C.ar    1  UNL1        0.0718
     13 C         143.3079  143.1368  165.0317 C.ar    1  UNL1        0.2262
     14 N         142.6039  144.0128  164.0382 N.ar    1  UNL1       -0.2116
     15 C         141.1101  144.1434  164.0795 C.ar    1  UNL1        0.0844
     16 C         140.4061  145.0193  163.0860 C.ar    1  UNL1        0.0192
     17 C         138.9124  145.1499  163.1273 C.ar    1  UNL1        0.0015
     18 C         138.1227  144.4046  164.1621 C.ar    1  UNL1        0.0001
     19 C         138.8267  143.5287  165.1556 C.ar    1  UNL1        0.0015
     20 C         140.3204  143.3981  165.1143 C.ar    1  UNL1        0.0194
     21 C         141.0245  142.5221  166.1079 C.ar    1  UNL1        0.0246
     22 C         140.5158  141.6723  167.2343 C.ar    1  UNL1        0.0762
     23 C         142.0132  138.0063  161.1858 C.3     1  UNL1        0.0768
     24 C         140.5188  138.0920  161.2814 C.3     1  UNL1        0.0437
     25 C         139.8647  138.3334  162.6096 C.ar    1  UNL1       -0.0208
     26 C         139.8791  137.2612  163.6585 C.ar    1  UNL1       -0.0045
     27 C         139.2251  137.5025  164.9867 C.ar    1  UNL1       -0.0022
     28 C         138.5567  138.8160  165.2659 C.ar    1  UNL1        0.0069
     29 C         138.5423  139.8882  164.2169 C.ar    1  UNL1       -0.0022
     30 C         139.1963  139.6469  162.8888 C.ar    1  UNL1       -0.0045
     31 C         137.9027  139.0574  166.5940 C.3     1  UNL1        0.1636
     32 O         137.0231  138.0039  167.1994 O.3     1  UNL1       -0.3772
     33 H         136.2334  137.8863  166.6485 H       1  UNL1        0.2109
@<TRIPOS>BOND
     1     9    10    1
     2    10    11   ar
     3    11    12   ar
     4    12    13   ar
     5    13     8    1
     6     8     7    1
     7     7     1    1
     8     1     2    1
     9     2     3    1
    10     3     4    1
    11     4    23    1
    12    23    24    1
    13    24    25    1
    14    25    26   ar
    15    26    27   ar
    16    27    28   ar
    17    28    31    1
    18    31    32    1
    19    28    29   ar
    20    29    30   ar
    21     4     5    1
    22     5     6    1
    23    13    14   ar
    24    14    15   ar
    25    15    16   ar
    26    16    17   ar
    27    17    18   ar
    28    18    19   ar
    29    19    20   ar
    30    20    21   ar
    31    21    22   ar
    32    22    10   ar
    33    21    12   ar
    34     6     1    1
    35    20    15   ar
    36    30    25   ar
    37    32    33    1
@<TRIPOS>MOLECULE
*****
 33 37 0 0 0
SMALL
GASTEIGER

@<TRIPOS>ATOM
      1 C         137.8998  142.6931  163.7388 C.3     1  UNL1        0.0466
      2 C         137.9406  141.4576  164.5884 C.3     1  UNL1        0.0211
      3 C         138.0141  140.1056  163.9429 C.3     1  UNL1        0.0722
      4 N         138.0468  139.9891  162.4477 N.3     1  UNL1       -0.2724
      5 C         138.0059  141.2247  161.5982 C.3     1  UNL1        0.0722
      6 C         137.9324  142.5767  162.2437 C.3     1  UNL1        0.0211
      7 C         137.8263  144.0451  164.3844 C.3     1  UNL1        0.2071
      8 O         139.0855  144.8048  164.6793 O.3     1  UNL1       -0.4602
      9 C         140.9991  141.5060  169.2115 C.3     1  UNL1        0.1305
     10 N         141.2174  142.0679  167.8379 N.ar    1  UNL1       -0.3228
     11 C         140.2710  142.9587  167.0890 C.ar    1  UNL1        0.0806
     12 C         140.8891  143.2789  165.7603 C.ar    1  UNL1        0.0718
     13 C         140.4140  144.1119  164.6069 C.ar    1  UNL1        0.2262
     14 N         141.2672  144.2519  163.3812 N.ar    1  UNL1       -0.2116
     15 C         142.5956  143.5589  163.3089 C.ar    1  UNL1        0.0844
     16 C         143.4488  143.6990  162.0832 C.ar    1  UNL1        0.0192
     17 C         144.7771  143.0061  162.0109 C.ar    1  UNL1        0.0015
     18 C         145.2523  142.1730  163.1643 C.ar    1  UNL1        0.0001
     19 C         144.3991  142.0330  164.3900 C.ar    1  UNL1        0.0015
     20 C         143.0707  142.7259  164.4623 C.ar    1  UNL1        0.0194
     21 C         142.2174  142.5859  165.6880 C.ar    1  UNL1        0.0246
     22 C         142.4204  141.8375  166.9720 C.ar    1  UNL1        0.0762
     23 C         138.1203  138.6372  161.8022 C.3     1  UNL1        0.0768
     24 C         139.4525  137.9878  161.5714 C.3     1  UNL1        0.0437
     25 C         140.5451  138.1352  162.5886 C.ar    1  UNL1       -0.0208
     26 C         141.6653  139.1041  162.3510 C.ar    1  UNL1       -0.0045
     27 C         142.7579  139.2515  163.3682 C.ar    1  UNL1       -0.0022
     28 C         142.7302  138.4301  164.6230 C.ar    1  UNL1        0.0069
     29 C         141.6099  137.4613  164.8606 C.ar    1  UNL1       -0.0022
     30 C         140.5174  137.3138  163.8434 C.ar    1  UNL1       -0.0045
     31 C         143.8226  138.5776  165.6401 C.3     1  UNL1        0.1636
     32 O         143.5062  138.4658  167.1021 O.3     1  UNL1       -0.3772
     33 H         142.9368  139.2051  167.3671 H       1  UNL1        0.2109
@<TRIPOS>BOND
     1     9    10    1
     2    10    11   ar
     3    11    12   ar
     4    12    13   ar
     5    13     8    1
     6     8     7    1
     7     7     1    1
     8     1     2    1
     9     2     3    1
    10     3     4    1
    11     4    23    1
    12    23    24    1
    13    24    25    1
    14    25    26   ar
    15    26    27   ar
    16    27    28   ar
    17    28    31    1
    18    31    32    1
    19    28    29   ar
    20    29    30   ar
    21     4     5    1
    22     5     6    1
    23    13    14   ar
    24    14    15   ar
    25    15    16   ar
    26    16    17   ar
    27    17    18   ar
    28    18    19   ar
    29    19    20   ar
    30    20    21   ar
    31    21    22   ar
    32    22    10   ar
    33    21    12   ar
    34     6     1    1
    35    20    15   ar
    36    30    25   ar
    37    32    33    1
@<TRIPOS>MOLECULE
*****
 33 37 0 0 0
SMALL
GASTEIGER

@<TRIPOS>ATOM
      1 C         139.0499  138.0421  162.6172 C.3     1  UNL1        0.0466
      2 C         138.9611  138.1174  164.1126 C.3     1  UNL1        0.0211
      3 C         140.2131  138.1867  164.9358 C.3     1  UNL1        0.0722
      4 N         141.5540  138.1806  164.2635 N.3     1  UNL1       -0.2724
      5 C         141.6428  138.1053  162.7680 C.3     1  UNL1        0.0722
      6 C         140.3908  138.0360  161.9449 C.3     1  UNL1        0.0211
      7 C         137.7979  137.9728  161.7941 C.3     1  UNL1        0.2071
      8 O         137.2706  139.2077  161.1255 O.3     1  UNL1       -0.4602
      9 C         140.6062  142.2503  157.2913 C.3     1  UNL1        0.1305
     10 N         139.9485  142.1473  158.6355 N.ar    1  UNL1       -0.3228
     11 C         139.1185  140.9979  159.1252 C.ar    1  UNL1        0.0806
     12 C         138.6623  141.3159  160.5183 C.ar    1  UNL1        0.0718
     13 C         137.8187  140.5538  161.4968 C.ar    1  UNL1        0.2262
     14 N         137.5231  141.1376  162.8464 N.ar    1  UNL1       -0.2116
     15 C         138.0711  142.4837  163.2177 C.ar    1  UNL1        0.0844
     16 C         137.7756  143.0676  164.5674 C.ar    1  UNL1        0.0192
     17 C         138.3236  144.4136  164.9386 C.ar    1  UNL1        0.0015
     18 C         139.1673  145.1757  163.9601 C.ar    1  UNL1        0.0001
     19 C         139.4628  144.5919  162.6105 C.ar    1  UNL1        0.0015
     20 C         138.9148  143.2459  162.2393 C.ar    1  UNL1        0.0194
     21 C         139.2104  142.6619  160.8895 C.ar    1  UNL1        0.0246
     22 C         140.0053  143.1758  159.7259 C.ar    1  UNL1        0.0762
     23 C         142.8061  138.2499  165.0866 C.3     1  UNL1        0.0768
     24 C         143.0322  139.4087  166.0117 C.3     1  UNL1        0.0437
     25 C         143.0436  140.8083  165.4719 C.ar    1  UNL1       -0.0208
     26 C         141.8352  141.6828  165.6296 C.ar    1  UNL1       -0.0045
     27 C         141.8466  143.0823  165.0899 C.ar    1  UNL1       -0.0022
     28 C         143.0664  143.6072  164.3924 C.ar    1  UNL1        0.0069
     29 C         144.2749  142.7326  164.2347 C.ar    1  UNL1       -0.0022
     30 C         144.2634  141.3332  164.7745 C.ar    1  UNL1       -0.0045
     31 C         143.0779  145.0066  163.8526 C.3     1  UNL1        0.1636
     32 O         143.7929  145.3096  162.5693 O.3     1  UNL1       -0.3772
     33 H         144.7457  145.1746  162.6904 H       1  UNL1        0.2109
@<TRIPOS>BOND
     1     9    10    1
     2    10    11   ar
     3    11    12   ar
     4    12    13   ar
     5    13     8    1
     6     8     7    1
     7     7     1    1
     8     1     2    1
     9     2     3    1
    10     3     4    1
    11     4    23    1
    12    23    24    1
    13    24    25    1
    14    25    26   ar
    15    26    27   ar
    16    27    28   ar
    17    28    31    1
    18    31    32    1
    19    28    29   ar
    20    29    30   ar
    21     4     5    1
    22     5     6    1
    23    13    14   ar
    24    14    15   ar
    25    15    16   ar
    26    16    17   ar
    27    17    18   ar
    28    18    19   ar
    29    19    20   ar
    30    20    21   ar
    31    21    22   ar
    32    22    10   ar
    33    21    12   ar
    34     6     1    1
    35    20    15   ar
    36    30    25   ar
    37    32    33    1
