@<TRIPOS>MOLECULE
*****
 25 28 0 0 0
SMALL
GASTEIGER

@<TRIPOS>ATOM
      1 C         138.9036  139.5214  163.5255 C.3     1  UNL1        0.0939
      2 C         137.5734  139.7188  161.3025 C.3     1  UNL1        0.0897
      3 N         137.9815  140.2916  162.6275 N.3     1  UNL1       -0.2701
      4 C         137.4675  141.6346  163.0543 C.3     1  UNL1        0.0721
      5 C         138.2871  142.8657  162.8036 C.3     1  UNL1        0.0147
      6 C         139.0225  143.1925  161.5378 C.3     1  UNL1        0.0013
      7 C         139.7050  144.5148  161.7266 C.3     1  UNL1        0.0000
      8 C         139.3914  145.0052  163.1091 C.3     1  UNL1        0.0000
      9 C         138.6560  144.6784  164.3749 C.3     1  UNL1        0.0000
     10 C         137.9734  143.3560  164.1861 C.3     1  UNL1        0.0013
     11 C         138.5150  143.9859  163.7747 C.3     1  UNL1        0.0013
     12 C         138.3484  144.6826  165.0926 C.3     1  UNL1        0.0000
     13 C         137.7076  143.4411  164.9154 C.3     1  UNL1        0.0000
     14 C         138.5693  139.3543  164.9783 C.3     1  UNL1        0.1123
     15 N         139.3057  140.1512  166.0139 N.am    1  UNL1       -0.2609
     16 C         140.3365  141.2072  165.7453 C.3     1  UNL1        0.1165
     17 C         140.8084  141.7407  167.0653 C.3     1  UNL1        0.1166
     18 N         140.0692  141.0145  168.1498 N.am    1  UNL1       -0.2587
     19 C         139.1405  140.0321  167.5000 C.2     1  UNL1        0.3074
     20 O         138.2099  139.0951  168.2114 O.2     1  UNL1       -0.2523
     21 C         140.2305  141.2324  169.6251 C.3     1  UNL1        0.1426
     22 C         140.0959  142.5427  170.3428 C.3     1  UNL1        0.2044
     23 O         140.3369  142.2983  171.8030 O.3     1  UNL1       -0.2185
     24 O         140.6204  140.8370  171.9878 O.3     1  UNL1       -0.2185
     25 C         140.5547  140.1782  170.6418 C.3     1  UNL1        0.2044
@<TRIPOS>BOND
     1     2     3    1
     2     3     1    1
     3     1    14    1
     4    14    15    1
     5    15    16    1
     6    16    17    1
     7    17    18    1
     8    18    21    1
     9    21    22    1
    10    22    23    1
    11    23    24    1
    12    24    25    1
    13    18    19   am
    14    19    20    2
    15     3     4    1
    16     5     4    1
    17     5     6    1
    18     6     7    1
    19     8     7    1
    20     8     9    1
    21     9    10    1
    22     8    11    1
    23    11    12    1
    24    11    13    1
    25    19    15   am
    26    10     5    1
    27    25    21    1
    28    11     5    1
@<TRIPOS>MOLECULE
*****
 25 28 0 0 0
SMALL
GASTEIGER

@<TRIPOS>ATOM
      1 C         138.9757  137.9060  164.6292 C.3     1  UNL1        0.0939
      2 C         139.3886  137.9011  162.0642 C.3     1  UNL1        0.0897
      3 N         139.8872  137.6745  163.4606 N.3     1  UNL1       -0.2701
      4 C         141.2972  137.2164  163.6885 C.3     1  UNL1        0.0721
      5 C         142.4361  138.1754  163.5062 C.3     1  UNL1        0.0147
      6 C         142.9792  138.6602  162.1947 C.3     1  UNL1        0.0013
      7 C         144.1106  139.6024  162.4814 C.3     1  UNL1        0.0000
      8 C         144.2668  139.6999  163.9700 C.3     1  UNL1        0.0000
      9 C         143.7237  139.2152  165.2815 C.3     1  UNL1        0.0000
     10 C         142.5923  138.2729  164.9949 C.3     1  UNL1        0.0013
     11 C         143.2319  138.8180  164.6034 C.3     1  UNL1        0.0013
     12 C         143.5834  139.0805  166.0378 C.3     1  UNL1        0.0000
     13 C         142.5211  138.1959  165.7687 C.3     1  UNL1        0.0000
     14 C         138.5227  139.2965  164.9633 C.3     1  UNL1        0.1123
     15 N         139.2636  140.1004  165.9903 N.am    1  UNL1       -0.2609
     16 C         140.2833  141.1640  165.7098 C.3     1  UNL1        0.1165
     17 C         140.7648  141.7027  167.0243 C.3     1  UNL1        0.1166
     18 N         140.0427  140.9719  168.1173 N.am    1  UNL1       -0.2587
     19 C         139.1149  139.9816  167.4782 C.2     1  UNL1        0.3074
     20 O         138.1991  139.0382  168.2002 O.2     1  UNL1       -0.2523
     21 C         140.2176  141.1927  169.5906 C.3     1  UNL1        0.1426
     22 C         140.0761  142.5020  170.3089 C.3     1  UNL1        0.2044
     23 O         140.3358  142.2614  171.7665 O.3     1  UNL1       -0.2185
     24 O         140.6379  140.8035  171.9491 O.3     1  UNL1       -0.2185
     25 C         140.5648  140.1430  170.6043 C.3     1  UNL1        0.2044
@<TRIPOS>BOND
     1     2     3    1
     2     3     1    1
     3     1    14    1
     4    14    15    1
     5    15    16    1
     6    16    17    1
     7    17    18    1
     8    18    21    1
     9    21    22    1
    10    22    23    1
    11    23    24    1
    12    24    25    1
    13    18    19   am
    14    19    20    2
    15     3     4    1
    16     5     4    1
    17     5     6    1
    18     6     7    1
    19     8     7    1
    20     8     9    1
    21     9    10    1
    22     8    11    1
    23    11    12    1
    24    11    13    1
    25    19    15   am
    26    10     5    1
    27    25    21    1
    28    11     5    1
@<TRIPOS>MOLECULE
*****
 25 28 0 0 0
SMALL
GASTEIGER

@<TRIPOS>ATOM
      1 C         139.9242  142.2331  162.6451 C.3     1  UNL1        0.0939
      2 C         137.8247  143.7523  162.8291 C.3     1  UNL1        0.0897
      3 N         138.5139  142.4494  163.1078 N.3     1  UNL1       -0.2701
      4 C         137.7928  141.3630  163.8491 C.3     1  UNL1        0.0721
      5 C         138.2530  139.9403  163.7293 C.3     1  UNL1        0.0147
      6 C         138.5143  139.2030  162.4495 C.3     1  UNL1        0.0013
      7 C         138.9555  137.8123  162.7977 C.3     1  UNL1        0.0000
      8 C         138.9669  137.6901  164.2926 C.3     1  UNL1        0.0000
      9 C         138.7056  138.4275  165.5725 C.3     1  UNL1        0.0000
     10 C         138.2644  139.8183  165.2244 C.3     1  UNL1        0.0013
     11 C         138.5327  139.0054  164.8685 C.3     1  UNL1        0.0013
     12 C         138.6239  138.6381  166.3200 C.3     1  UNL1        0.0000
     13 C         138.2096  139.9439  165.9931 C.3     1  UNL1        0.0000
     14 C         141.0719  142.6474  163.5178 C.3     1  UNL1        0.1123
     15 N         141.1318  142.1904  164.9452 N.am    1  UNL1       -0.2609
     16 C         141.9026  141.0120  165.4620 C.3     1  UNL1        0.1165
     17 C         141.6786  140.9249  166.9426 C.3     1  UNL1        0.1166
     18 N         140.7695  142.0496  167.3409 N.am    1  UNL1       -0.2587
     19 C         140.4315  142.8317  166.1064 C.2     1  UNL1        0.3074
     20 O         139.5483  144.0425  166.0440 O.2     1  UNL1       -0.2523
     21 C         140.2836  142.3409  168.7298 C.3     1  UNL1        0.1426
     22 C         139.6209  141.3638  169.6552 C.3     1  UNL1        0.2044
     23 O         139.3029  142.0795  170.9344 O.3     1  UNL1       -0.2185
     24 O         139.7689  143.4989  170.7997 O.3     1  UNL1       -0.2185
     25 C         140.3750  143.6605  169.4372 C.3     1  UNL1        0.2044
@<TRIPOS>BOND
     1     2     3    1
     2     3     1    1
     3     1    14    1
     4    14    15    1
     5    15    16    1
     6    16    17    1
     7    17    18    1
     8    18    21    1
     9    21    22    1
    10    22    23    1
    11    23    24    1
    12    24    25    1
    13    18    19   am
    14    19    20    2
    15     3     4    1
    16     5     4    1
    17     5     6    1
    18     6     7    1
    19     8     7    1
    20     8     9    1
    21     9    10    1
    22     8    11    1
    23    11    12    1
    24    11    13    1
    25    19    15   am
    26    10     5    1
    27    25    21    1
    28    11     5    1
@<TRIPOS>MOLECULE
*****
 25 28 0 0 0
SMALL
GASTEIGER

@<TRIPOS>ATOM
      1 C         142.8756  138.4590  164.7375 C.3     1  UNL1        0.0939
      2 C         142.6637  137.9540  162.1978 C.3     1  UNL1        0.0897
      3 N         142.0271  138.1335  163.5442 N.3     1  UNL1       -0.2701
      4 C         140.5421  137.9874  163.6972 C.3     1  UNL1        0.0721
      5 C         139.6853  139.2028  163.8937 C.3     1  UNL1        0.0147
      6 C         139.6167  140.3904  162.9800 C.3     1  UNL1        0.0013
      7 C         138.6356  141.3655  163.5601 C.3     1  UNL1        0.0000
      8 C         138.0978  140.7806  164.8324 C.3     1  UNL1        0.0000
      9 C         138.1664  139.5931  165.7462 C.3     1  UNL1        0.0000
     10 C         139.1476  138.6179  165.1661 C.3     1  UNL1        0.0013
     11 C         138.7466  139.4440  165.0386 C.3     1  UNL1        0.0013
     12 C         138.0682  139.0790  166.3257 C.3     1  UNL1        0.0000
     13 C         138.9894  138.1634  165.7810 C.3     1  UNL1        0.0000
     14 C         143.2016  139.8876  165.0589 C.3     1  UNL1        0.1123
     15 N         142.4009  140.6258  166.0903 N.am    1  UNL1       -0.2609
     16 C         141.5317  141.8226  165.8412 C.3     1  UNL1        0.1165
     17 C         140.9225  142.2333  167.1489 C.3     1  UNL1        0.1166
     18 N         141.4153  141.2904  168.2063 N.am    1  UNL1       -0.2587
     19 C         142.3290  140.2969  167.5521 C.2     1  UNL1        0.3074
     20 O         143.0451  139.1721  168.2390 O.2     1  UNL1       -0.2523
     21 C         141.0572  141.3335  169.6623 C.3     1  UNL1        0.1426
     22 C         141.0658  142.5523  170.5367 C.3     1  UNL1        0.2044
     23 O         140.6416  142.1374  171.9143 O.3     1  UNL1       -0.2185
     24 O         140.3709  140.6622  171.8914 O.3     1  UNL1       -0.2185
     25 C         140.6278  140.1654  170.4996 C.3     1  UNL1        0.2044
@<TRIPOS>BOND
     1     2     3    1
     2     3     1    1
     3     1    14    1
     4    14    15    1
     5    15    16    1
     6    16    17    1
     7    17    18    1
     8    18    21    1
     9    21    22    1
    10    22    23    1
    11    23    24    1
    12    24    25    1
    13    18    19   am
    14    19    20    2
    15     3     4    1
    16     5     4    1
    17     5     6    1
    18     6     7    1
    19     8     7    1
    20     8     9    1
    21     9    10    1
    22     8    11    1
    23    11    12    1
    24    11    13    1
    25    19    15   am
    26    10     5    1
    27    25    21    1
    28    11     5    1
@<TRIPOS>MOLECULE
*****
 25 28 0 0 0
SMALL
GASTEIGER

@<TRIPOS>ATOM
      1 C         143.2655  140.1906  163.6758 C.3     1  UNL1        0.0939
      2 C         144.0232  139.1160  161.4350 C.3     1  UNL1        0.0897
      3 N         143.1968  139.0657  162.6859 N.3     1  UNL1       -0.2701
      4 C         142.3018  137.8906  162.9468 C.3     1  UNL1        0.0721
      5 C         140.8517  137.9536  162.5682 C.3     1  UNL1        0.0147
      6 C         140.3099  138.2031  161.1919 C.3     1  UNL1        0.0013
      7 C         138.8123  138.1818  161.2725 C.3     1  UNL1        0.0000
      8 C         138.4284  137.9191  162.6985 C.3     1  UNL1        0.0000
      9 C         138.9702  137.6696  164.0748 C.3     1  UNL1        0.0000
     10 C         140.4680  137.6909  163.9943 C.3     1  UNL1        0.0013
     11 C         139.6889  137.7781  163.4993 C.3     1  UNL1        0.0013
     12 C         139.0592  137.5303  164.8380 C.3     1  UNL1        0.0000
     13 C         140.4654  137.5503  164.7624 C.3     1  UNL1        0.0000
     14 C         143.4354  139.8949  165.1366 C.3     1  UNL1        0.1123
     15 N         142.6329  140.6514  166.1533 N.am    1  UNL1       -0.2609
     16 C         141.8370  141.8971  165.8990 C.3     1  UNL1        0.1165
     17 C         141.1977  142.3106  167.1913 C.3     1  UNL1        0.1166
     18 N         141.5985  141.3204  168.2444 N.am    1  UNL1       -0.2587
     19 C         142.4856  140.2950  167.6028 C.2     1  UNL1        0.3074
     20 O         143.1147  139.1196  168.2902 O.2     1  UNL1       -0.2523
     21 C         141.1849  141.3505  169.6859 C.3     1  UNL1        0.1426
     22 C         140.6484  140.1920  170.4736 C.3     1  UNL1        0.2044
     23 O         140.3671  140.6698  171.8673 O.3     1  UNL1       -0.2185
     24 O         140.7296  142.1235  171.9411 O.3     1  UNL1       -0.2185
     25 C         141.2350  142.5441  170.5929 C.3     1  UNL1        0.2044
@<TRIPOS>BOND
     1     2     3    1
     2     3     1    1
     3     1    14    1
     4    14    15    1
     5    15    16    1
     6    16    17    1
     7    17    18    1
     8    18    21    1
     9    21    22    1
    10    22    23    1
    11    23    24    1
    12    24    25    1
    13    18    19   am
    14    19    20    2
    15     3     4    1
    16     5     4    1
    17     5     6    1
    18     6     7    1
    19     8     7    1
    20     8     9    1
    21     9    10    1
    22     8    11    1
    23    11    12    1
    24    11    13    1
    25    19    15   am
    26    10     5    1
    27    25    21    1
    28    11     5    1
@<TRIPOS>MOLECULE
*****
 25 28 0 0 0
SMALL
GASTEIGER

@<TRIPOS>ATOM
      1 C         142.6198  142.2551  163.7166 C.3     1  UNL1        0.0939
      2 C         143.6414  144.3862  162.6375 C.3     1  UNL1        0.0897
      3 N         142.5165  143.7091  163.3629 N.3     1  UNL1       -0.2701
      4 C         141.2884  144.4859  163.7346 C.3     1  UNL1        0.0721
      5 C         139.9412  144.0345  163.2535 C.3     1  UNL1        0.0147
      6 C         139.6431  143.4157  161.9201 C.3     1  UNL1        0.0013
      7 C         138.1733  143.1214  161.8640 C.3     1  UNL1        0.0000
      8 C         137.5631  143.5583  163.1627 C.3     1  UNL1        0.0000
      9 C         137.8613  144.1772  164.4962 C.3     1  UNL1        0.0000
     10 C         139.3311  144.4715  164.5524 C.3     1  UNL1        0.0013
     11 C         138.6558  144.1227  164.0216 C.3     1  UNL1        0.0013
     12 C         137.8210  144.4746  165.2171 C.3     1  UNL1        0.0000
     13 C         139.2010  144.7509  165.2698 C.3     1  UNL1        0.0000
     14 C         143.1178  141.8461  165.0712 C.3     1  UNL1        0.1123
     15 N         142.1414  141.5199  166.1622 N.am    1  UNL1       -0.2609
     16 C         140.8259  140.8207  165.9880 C.3     1  UNL1        0.1165
     17 C         140.1806  140.7043  167.3371 C.3     1  UNL1        0.1166
     18 N         141.0974  141.3315  168.3451 N.am    1  UNL1       -0.2587
     19 C         142.3092  141.8356  167.6190 C.2     1  UNL1        0.3074
     20 O         143.4828  142.5329  168.2405 O.2     1  UNL1       -0.2523
     21 C         140.8464  141.4362  169.8202 C.3     1  UNL1        0.1426
     22 C         140.7999  140.2928  170.7901 C.3     1  UNL1        0.2044
     23 O         140.5226  140.8527  172.1537 O.3     1  UNL1       -0.2185
     24 O         140.3976  142.3421  172.0267 O.3     1  UNL1       -0.2185
     25 C         140.5977  142.7027  170.5845 C.3     1  UNL1        0.2044
@<TRIPOS>BOND
     1     2     3    1
     2     3     1    1
     3     1    14    1
     4    14    15    1
     5    15    16    1
     6    16    17    1
     7    17    18    1
     8    18    21    1
     9    21    22    1
    10    22    23    1
    11    23    24    1
    12    24    25    1
    13    18    19   am
    14    19    20    2
    15     3     4    1
    16     5     4    1
    17     5     6    1
    18     6     7    1
    19     8     7    1
    20     8     9    1
    21     9    10    1
    22     8    11    1
    23    11    12    1
    24    11    13    1
    25    19    15   am
    26    10     5    1
    27    25    21    1
    28    11     5    1
@<TRIPOS>MOLECULE
*****
 25 28 0 0 0
SMALL
GASTEIGER

@<TRIPOS>ATOM
      1 C         142.5565  140.3138  164.9743 C.3     1  UNL1        0.0939
      2 C         142.1543  141.2753  167.3542 C.3     1  UNL1        0.0897
      3 N         141.6188  140.8269  166.0267 N.3     1  UNL1       -0.2701
      4 C         140.1457  140.8915  165.7515 C.3     1  UNL1        0.0721
      5 C         139.5062  142.2004  165.3940 C.3     1  UNL1        0.0147
      6 C         139.8793  143.5440  165.9467 C.3     1  UNL1        0.0013
      7 C         138.9850  144.5695  165.3154 C.3     1  UNL1        0.0000
      8 C         138.0592  143.8597  164.3724 C.3     1  UNL1        0.0000
      9 C         137.6861  142.5161  163.8197 C.3     1  UNL1        0.0000
     10 C         138.5804  141.4905  164.4511 C.3     1  UNL1        0.0013
     11 C         138.3814  142.3955  164.4210 C.3     1  UNL1        0.0013
     12 C         137.3586  141.9237  163.4304 C.3     1  UNL1        0.0000
     13 C         138.1983  140.9608  164.0231 C.3     1  UNL1        0.0000
     14 C         143.4909  141.2580  164.2774 C.3     1  UNL1        0.1123
     15 N         143.0083  142.6128  163.8514 N.am    1  UNL1       -0.2609
     16 C         143.4540  143.9268  164.4212 C.3     1  UNL1        0.1165
     17 C         142.7165  145.0176  163.7028 C.3     1  UNL1        0.1166
     18 N         141.8149  144.3778  162.6890 N.am    1  UNL1       -0.2587
     19 C         141.9953  142.8915  162.7809 C.2     1  UNL1        0.3074
     20 O         141.2870  141.8643  161.9483 O.2     1  UNL1       -0.2523
     21 C         140.8946  145.0978  161.7485 C.3     1  UNL1        0.1426
     22 C         139.8519  146.1050  162.1337 C.3     1  UNL1        0.2044
     23 O         139.1683  146.5667  160.8809 O.3     1  UNL1       -0.2185
     24 O         139.7885  145.8449  159.7215 O.3     1  UNL1       -0.2185
     25 C         140.8554  144.9370  160.2577 C.3     1  UNL1        0.2044
@<TRIPOS>BOND
     1     2     3    1
     2     3     1    1
     3     1    14    1
     4    14    15    1
     5    15    16    1
     6    16    17    1
     7    17    18    1
     8    18    21    1
     9    21    22    1
    10    22    23    1
    11    23    24    1
    12    24    25    1
    13    18    19   am
    14    19    20    2
    15     3     4    1
    16     5     4    1
    17     5     6    1
    18     6     7    1
    19     8     7    1
    20     8     9    1
    21     9    10    1
    22     8    11    1
    23    11    12    1
    24    11    13    1
    25    19    15   am
    26    10     5    1
    27    25    21    1
    28    11     5    1
@<TRIPOS>MOLECULE
*****
 25 28 0 0 0
SMALL
GASTEIGER

@<TRIPOS>ATOM
      1 C         137.5142  140.4716  162.0875 C.3     1  UNL1        0.0939
      2 C         138.5821  141.6366  160.0254 C.3     1  UNL1        0.0897
      3 N         137.9938  141.7171  161.4030 N.3     1  UNL1       -0.2701
      4 C         137.8852  143.0430  162.0959 C.3     1  UNL1        0.0721
      5 C         139.1025  143.6728  162.7052 C.3     1  UNL1        0.0147
      6 C         140.4589  143.7643  162.0712 C.3     1  UNL1        0.0013
      7 C         141.3719  144.4698  163.0297 C.3     1  UNL1        0.0000
      8 C         140.5798  144.8143  164.2561 C.3     1  UNL1        0.0000
      9 C         139.2235  144.7228  164.8901 C.3     1  UNL1        0.0000
     10 C         138.3104  144.0173  163.9315 C.3     1  UNL1        0.0013
     11 C         139.1773  144.3217  164.0555 C.3     1  UNL1        0.0013
     12 C         138.6086  144.7703  165.3690 C.3     1  UNL1        0.0000
     13 C         137.7513  144.1080  164.4691 C.3     1  UNL1        0.0000
     14 C         138.4938  139.5729  162.7825 C.3     1  UNL1        0.1123
     15 N         139.7446  140.1463  163.3799 N.am    1  UNL1       -0.2609
     16 C         139.8736  140.7446  164.7492 C.3     1  UNL1        0.1165
     17 C         141.2946  141.1900  164.9284 C.3     1  UNL1        0.1166
     18 N         142.0439  140.8670  163.6697 N.am    1  UNL1       -0.2587
     19 C         141.0859  140.2219  162.7127 C.2     1  UNL1        0.3074
     20 O         141.4119  139.7376  161.3310 O.2     1  UNL1       -0.2523
     21 C         143.4962  141.1410  163.4132 C.3     1  UNL1        0.1426
     22 C         144.6226  140.8958  164.3729 C.3     1  UNL1        0.2044
     23 O         145.8996  141.3116  163.7048 O.3     1  UNL1       -0.2185
     24 O         145.5624  141.8138  162.3321 O.3     1  UNL1       -0.2185
     25 C         144.0770  141.7084  162.1520 C.3     1  UNL1        0.2044
@<TRIPOS>BOND
     1     2     3    1
     2     3     1    1
     3     1    14    1
     4    14    15    1
     5    15    16    1
     6    16    17    1
     7    17    18    1
     8    18    21    1
     9    21    22    1
    10    22    23    1
    11    23    24    1
    12    24    25    1
    13    18    19   am
    14    19    20    2
    15     3     4    1
    16     5     4    1
    17     5     6    1
    18     6     7    1
    19     8     7    1
    20     8     9    1
    21     9    10    1
    22     8    11    1
    23    11    12    1
    24    11    13    1
    25    19    15   am
    26    10     5    1
    27    25    21    1
    28    11     5    1
@<TRIPOS>MOLECULE
*****
 25 28 0 0 0
SMALL
GASTEIGER

@<TRIPOS>ATOM
      1 C         143.9691  142.5175  163.4535 C.3     1  UNL1        0.0939
      2 C         143.8473  141.6760  160.9985 C.3     1  UNL1        0.0897
      3 N         144.0523  141.3983  162.4583 N.3     1  UNL1       -0.2701
      4 C         144.3406  140.0015  162.9229 C.3     1  UNL1        0.0721
      5 C         143.2192  139.1173  163.3819 C.3     1  UNL1        0.0147
      6 C         142.0588  138.6606  162.5484 C.3     1  UNL1        0.0013
      7 C         141.1838  137.7956  163.4064 C.3     1  UNL1        0.0000
      8 C         141.8035  137.7178  164.7702 C.3     1  UNL1        0.0000
      9 C         142.9640  138.1745  165.6037 C.3     1  UNL1        0.0000
     10 C         143.8390  139.0395  164.7457 C.3     1  UNL1        0.0013
     11 C         143.0615  138.5346  164.7551 C.3     1  UNL1        0.0013
     12 C         143.4771  138.3044  166.1778 C.3     1  UNL1        0.0000
     13 C         144.2986  139.1165  165.3722 C.3     1  UNL1        0.0000
     14 C         142.6304  143.0194  163.9076 C.3     1  UNL1        0.1123
     15 N         141.7671  142.1636  164.7865 N.am    1  UNL1       -0.2609
     16 C         140.4985  141.4767  164.3761 C.3     1  UNL1        0.1165
     17 C         139.9683  140.7331  165.5660 C.3     1  UNL1        0.1166
     18 N         140.9093  140.9604  166.7117 N.am    1  UNL1       -0.2587
     19 C         142.0210  141.8446  166.2300 C.2     1  UNL1        0.3074
     20 O         143.1828  142.3253  167.0481 O.2     1  UNL1       -0.2523
     21 C         140.7640  140.4017  168.0962 C.3     1  UNL1        0.1426
     22 C         141.8725  139.8593  168.9489 C.3     1  UNL1        0.2044
     23 O         141.2783  139.4097  170.2507 O.3     1  UNL1       -0.2185
     24 O         139.8026  139.6743  170.2026 O.3     1  UNL1       -0.2185
     25 C         139.4847  140.2874  168.8711 C.3     1  UNL1        0.2044
@<TRIPOS>BOND
     1     2     3    1
     2     3     1    1
     3     1    14    1
     4    14    15    1
     5    15    16    1
     6    16    17    1
     7    17    18    1
     8    18    21    1
     9    21    22    1
    10    22    23    1
    11    23    24    1
    12    24    25    1
    13    18    19   am
    14    19    20    2
    15     3     4    1
    16     5     4    1
    17     5     6    1
    18     6     7    1
    19     8     7    1
    20     8     9    1
    21     9    10    1
    22     8    11    1
    23    11    12    1
    24    11    13    1
    25    19    15   am
    26    10     5    1
    27    25    21    1
    28    11     5    1
