@<TRIPOS>MOLECULE
*****
 30 33 0 0 0
SMALL
GASTEIGER

@<TRIPOS>ATOM
      1 C         140.5505  144.6865  164.0027 C.ar    1  UNL1        0.1488
      2 C         141.2791  145.2512  162.8194 C.ar    1  UNL1        0.0390
      3 C         142.6507  144.7514  162.4747 C.ar    1  UNL1        0.0417
      4 C         143.2937  143.6868  163.3133 C.ar    1  UNL1        0.1640
      5 N         144.6252  143.0024  163.2188 N.ar    1  UNL1       -0.2234
      6 C         144.7194  142.0146  164.3438 C.ar    1  UNL1        0.1197
      7 C         143.4463  142.0887  165.1335 C.ar    1  UNL1        0.1037
      8 N         142.5652  143.1221  164.4966 N.ar    1  UNL1       -0.2096
      9 N         141.1936  143.6220  164.8413 N.ar    1  UNL1       -0.1489
     10 C         143.1127  141.2725  166.3470 C.ar    1  UNL1        0.0223
     11 C         143.2096  139.7766  166.2946 C.ar    1  UNL1        0.0017
     12 C         142.8761  138.9604  167.5081 C.ar    1  UNL1        0.0032
     13 C         142.4457  139.6401  168.7741 C.ar    1  UNL1        0.0372
     14 C         142.3488  141.1361  168.8265 C.ar    1  UNL1        0.1469
     15 C         142.6823  141.9522  167.6130 C.ar    1  UNL1        0.0387
     16 O         141.9184  141.8159  170.0925 O.3     1  UNL1       -0.4045
     17 C         141.3143  143.1878  170.0391 C.3     1  UNL1        0.5753
     18 F         140.7102  144.5598  169.9856 F       1  UNL1       -0.1328
     19 F         142.6191  143.7796  170.4833 F       1  UNL1       -0.1328
     20 F         140.0095  142.5960  169.5948 F       1  UNL1       -0.1328
     21 N         139.1789  145.1863  164.3474 N.pl3   1  UNL1       -0.3168
     22 H         138.9958  146.1536  164.3587 H       1  UNL1        0.1482
     23 C         138.0861  144.2124  164.6749 C.3     1  UNL1        0.0883
     24 C         137.8646  138.9034  161.8882 C.3     1  UNL1        0.0896
     25 N         137.9200  140.2307  162.5848 N.3     1  UNL1       -0.2715
     26 C         138.1131  140.2901  164.0712 C.3     1  UNL1        0.0722
     27 C         138.1684  141.6173  164.7679 C.3     1  UNL1        0.0191
     28 C         138.0307  142.8851  163.9782 C.3     1  UNL1        0.0223
     29 C         137.8376  142.8257  162.4919 C.3     1  UNL1        0.0191
     30 C         137.7823  141.4985  161.7952 C.3     1  UNL1        0.0722
@<TRIPOS>BOND
     1    24    25    1
     2    25    26    1
     3    26    27    1
     4    27    28    1
     5    28    23    1
     6    23    21    1
     7    21     1    1
     8     1     2   ar
     9     2     3   ar
    10     3     4   ar
    11     4     5   ar
    12     5     6   ar
    13     6     7   ar
    14     7    10    1
    15    10    11   ar
    16    11    12   ar
    17    12    13   ar
    18    13    14   ar
    19    14    16    1
    20    16    17    1
    21    17    18    1
    22    17    19    1
    23    17    20    1
    24    14    15   ar
    25     7     8   ar
    26     8     9   ar
    27    28    29    1
    28    29    30    1
    29    30    25    1
    30     9     1   ar
    31     8     4   ar
    32    15    10   ar
    33    21    22    1
@<TRIPOS>MOLECULE
*****
 30 33 0 0 0
SMALL
GASTEIGER

@<TRIPOS>ATOM
      1 C         143.7498  143.3053  164.5553 C.ar    1  UNL1        0.1488
      2 C         143.6879  144.6425  163.8784 C.ar    1  UNL1        0.0390
      3 C         142.3611  145.2965  163.6298 C.ar    1  UNL1        0.0417
      4 C         141.0962  144.6134  164.0581 C.ar    1  UNL1        0.1640
      5 N         139.6540  145.0107  163.9476 N.ar    1  UNL1       -0.2234
      6 C         138.8246  143.9191  164.5562 C.ar    1  UNL1        0.1197
      7 C         139.7542  142.8472  165.0429 C.ar    1  UNL1        0.1037
      8 N         141.1581  143.2763  164.7350 N.ar    1  UNL1       -0.2096
      9 N         142.4849  142.6222  164.9836 N.ar    1  UNL1       -0.1489
     10 C         139.3507  141.5703  165.7187 C.ar    1  UNL1        0.0223
     11 C         138.4755  140.5859  165.0011 C.ar    1  UNL1        0.0017
     12 C         138.0720  139.3090  165.6769 C.ar    1  UNL1        0.0032
     13 C         138.5437  139.0164  167.0704 C.ar    1  UNL1        0.0372
     14 C         139.4189  140.0008  167.7880 C.ar    1  UNL1        0.1469
     15 C         139.8224  141.2777  167.1122 C.ar    1  UNL1        0.0387
     16 O         139.8907  139.7083  169.1816 O.3     1  UNL1       -0.4045
     17 C         140.0824  140.8295  170.1594 C.3     1  UNL1        0.5753
     18 F         140.2741  141.9508  171.1373 F       1  UNL1       -0.1328
     19 F         138.6004  141.0597  170.1859 F       1  UNL1       -0.1328
     20 F         141.5644  140.5992  170.1329 F       1  UNL1       -0.1328
     21 N         145.0766  142.6512  164.8039 N.pl3   1  UNL1       -0.3168
     22 H         145.5348  142.7794  165.6658 H       1  UNL1        0.1482
     23 C         145.7053  141.8019  163.7393 C.3     1  UNL1        0.0883
     24 C         142.3344  137.9835  160.5679 C.3     1  UNL1        0.0896
     25 N         143.1772  138.9382  161.3608 N.3     1  UNL1       -0.2715
     26 C         143.6404  138.5642  162.7376 C.3     1  UNL1        0.0722
     27 C         144.4831  139.5188  163.5304 C.3     1  UNL1        0.0191
     28 C         144.8626  140.8473  162.9465 C.3     1  UNL1        0.0223
     29 C         144.3993  141.2212  161.5697 C.3     1  UNL1        0.0191
     30 C         143.5566  140.2667  160.7768 C.3     1  UNL1        0.0722
@<TRIPOS>BOND
     1    24    25    1
     2    25    26    1
     3    26    27    1
     4    27    28    1
     5    28    23    1
     6    23    21    1
     7    21     1    1
     8     1     2   ar
     9     2     3   ar
    10     3     4   ar
    11     4     5   ar
    12     5     6   ar
    13     6     7   ar
    14     7    10    1
    15    10    11   ar
    16    11    12   ar
    17    12    13   ar
    18    13    14   ar
    19    14    16    1
    20    16    17    1
    21    17    18    1
    22    17    19    1
    23    17    20    1
    24    14    15   ar
    25     7     8   ar
    26     8     9   ar
    27    28    29    1
    28    29    30    1
    29    30    25    1
    30     9     1   ar
    31     8     4   ar
    32    15    10   ar
    33    21    22    1
@<TRIPOS>MOLECULE
*****
 30 33 0 0 0
SMALL
GASTEIGER

@<TRIPOS>ATOM
      1 C         144.0104  140.2786  164.3572 C.ar    1  UNL1        0.1488
      2 C         145.3549  140.6628  163.8143 C.ar    1  UNL1        0.0390
      3 C         145.5404  141.9901  163.1407 C.ar    1  UNL1        0.0417
      4 C         144.3813  142.9332  163.0099 C.ar    1  UNL1        0.1640
      5 N         144.2623  144.2987  162.4004 N.ar    1  UNL1       -0.2234
      6 C         142.8442  144.7584  162.5666 C.ar    1  UNL1        0.1197
      7 C         142.0868  143.6771  163.2788 C.ar    1  UNL1        0.1037
      8 N         143.0369  142.5491  163.5528 N.ar    1  UNL1       -0.2096
      9 N         142.8514  141.2218  164.2264 N.ar    1  UNL1       -0.1489
     10 C         140.6345  143.7168  163.6516 C.ar    1  UNL1        0.0223
     11 C         140.1508  144.6949  164.6809 C.ar    1  UNL1        0.0017
     12 C         138.6984  144.7346  165.0536 C.ar    1  UNL1        0.0032
     13 C         137.7296  143.7962  164.3972 C.ar    1  UNL1        0.0372
     14 C         138.2133  142.8181  163.3679 C.ar    1  UNL1        0.1469
     15 C         139.6657  142.7784  162.9951 C.ar    1  UNL1        0.0387
     16 O         137.2445  141.8797  162.7114 O.3     1  UNL1       -0.4045
     17 C         137.5591  140.4155  162.6265 C.3     1  UNL1        0.5753
     18 F         137.8736  138.9512  162.5417 F       1  UNL1       -0.1328
     19 F         137.4548  140.4798  161.1315 F       1  UNL1       -0.1328
     20 F         137.6633  140.3513  164.1216 F       1  UNL1       -0.1328
     21 N         143.8249  138.9513  165.0308 N.pl3   1  UNL1       -0.3168
     22 H         144.6052  138.3809  165.2179 H       1  UNL1        0.1482
     23 C         142.4506  138.4930  165.4195 C.3     1  UNL1        0.0883
     24 C         139.5728  141.1559  169.9613 C.3     1  UNL1        0.0896
     25 N         140.2923  140.4901  168.8258 N.3     1  UNL1       -0.2715
     26 C         139.5671  140.2013  167.5449 C.3     1  UNL1        0.0722
     27 C         140.2865  139.5356  166.4094 C.3     1  UNL1        0.0191
     28 C         141.7311  139.1587  166.5549 C.3     1  UNL1        0.0223
     29 C         142.4562  139.4476  167.8358 C.3     1  UNL1        0.0191
     30 C         141.7368  140.1133  168.9713 C.3     1  UNL1        0.0722
@<TRIPOS>BOND
     1    24    25    1
     2    25    26    1
     3    26    27    1
     4    27    28    1
     5    28    23    1
     6    23    21    1
     7    21     1    1
     8     1     2   ar
     9     2     3   ar
    10     3     4   ar
    11     4     5   ar
    12     5     6   ar
    13     6     7   ar
    14     7    10    1
    15    10    11   ar
    16    11    12   ar
    17    12    13   ar
    18    13    14   ar
    19    14    16    1
    20    16    17    1
    21    17    18    1
    22    17    19    1
    23    17    20    1
    24    14    15   ar
    25     7     8   ar
    26     8     9   ar
    27    28    29    1
    28    29    30    1
    29    30    25    1
    30     9     1   ar
    31     8     4   ar
    32    15    10   ar
    33    21    22    1
@<TRIPOS>MOLECULE
*****
 30 33 0 0 0
SMALL
GASTEIGER

@<TRIPOS>ATOM
      1 C         139.1840  143.8653  163.6413 C.ar    1  UNL1        0.1488
      2 C         138.1658  143.4536  162.6197 C.ar    1  UNL1        0.0390
      3 C         137.6623  142.0410  162.5896 C.ar    1  UNL1        0.0417
      4 C         138.1769  141.0401  163.5812 C.ar    1  UNL1        0.1640
      5 N         137.8683  139.5875  163.7935 N.ar    1  UNL1       -0.2234
      6 C         138.6958  139.1015  164.9463 C.ar    1  UNL1        0.1197
      7 C         139.5158  140.2537  165.4466 C.ar    1  UNL1        0.1037
      8 N         139.1951  141.4517  164.6029 N.ar    1  UNL1       -0.2096
      9 N         139.6986  142.8644  164.6329 N.ar    1  UNL1       -0.1489
     10 C         140.4861  140.2147  166.5898 C.ar    1  UNL1        0.0223
     11 C         141.7377  139.3948  166.4835 C.ar    1  UNL1        0.0017
     12 C         142.7080  139.3557  167.6268 C.ar    1  UNL1        0.0032
     13 C         142.4268  140.1365  168.8762 C.ar    1  UNL1        0.0372
     14 C         141.1752  140.9564  168.9824 C.ar    1  UNL1        0.1469
     15 C         140.2049  140.9955  167.8392 C.ar    1  UNL1        0.0387
     16 O         140.8939  141.7373  170.2320 O.3     1  UNL1       -0.4045
     17 C         140.5891  143.2036  170.1474 C.3     1  UNL1        0.5753
     18 F         140.2841  144.6699  170.0628 F       1  UNL1       -0.1328
     19 F         141.9619  143.4574  169.5989 F       1  UNL1       -0.1328
     20 F         139.2162  142.9497  170.6959 F       1  UNL1       -0.1328
     21 N         139.6876  145.2780  163.6714 N.pl3   1  UNL1       -0.3168
     22 H         139.1871  145.9686  164.1631 H       1  UNL1        0.1482
     23 C         140.9537  145.6383  162.9523 C.3     1  UNL1        0.0883
     24 C         145.6379  141.8905  163.0636 C.3     1  UNL1        0.0896
     25 N         144.4668  142.8275  163.0358 N.3     1  UNL1       -0.2715
     26 C         144.2015  143.7313  164.2032 C.3     1  UNL1        0.0722
     27 C         143.0305  144.6682  164.1754 C.3     1  UNL1        0.0191
     28 C         142.1248  144.7014  162.9802 C.3     1  UNL1        0.0223
     29 C         142.3901  143.7976  161.8128 C.3     1  UNL1        0.0191
     30 C         143.5611  142.8607  161.8406 C.3     1  UNL1        0.0722
@<TRIPOS>BOND
     1    24    25    1
     2    25    26    1
     3    26    27    1
     4    27    28    1
     5    28    23    1
     6    23    21    1
     7    21     1    1
     8     1     2   ar
     9     2     3   ar
    10     3     4   ar
    11     4     5   ar
    12     5     6   ar
    13     6     7   ar
    14     7    10    1
    15    10    11   ar
    16    11    12   ar
    17    12    13   ar
    18    13    14   ar
    19    14    16    1
    20    16    17    1
    21    17    18    1
    22    17    19    1
    23    17    20    1
    24    14    15   ar
    25     7     8   ar
    26     8     9   ar
    27    28    29    1
    28    29    30    1
    29    30    25    1
    30     9     1   ar
    31     8     4   ar
    32    15    10   ar
    33    21    22    1
@<TRIPOS>MOLECULE
*****
 30 33 0 0 0
SMALL
GASTEIGER

@<TRIPOS>ATOM
      1 C         142.0289  144.8120  163.4072 C.ar    1  UNL1        0.1488
      2 C         143.2903  144.8318  162.5958 C.ar    1  UNL1        0.0390
      3 C         144.2894  143.7217  162.7357 C.ar    1  UNL1        0.0417
      4 C         144.0271  142.5920  163.6869 C.ar    1  UNL1        0.1640
      5 N         144.8215  141.3682  164.0353 N.ar    1  UNL1       -0.2234
      6 C         144.0510  140.5922  165.0619 C.ar    1  UNL1        0.1197
      7 C         142.7804  141.3363  165.3481 C.ar    1  UNL1        0.1037
      8 N         142.7656  142.5723  164.4983 N.ar    1  UNL1       -0.2096
      9 N         141.7665  143.6823  164.3584 N.ar    1  UNL1       -0.1489
     10 C         141.7122  140.9180  166.3144 C.ar    1  UNL1        0.0223
     11 C         141.9092  141.1265  167.7867 C.ar    1  UNL1        0.0017
     12 C         140.8409  140.7082  168.7531 C.ar    1  UNL1        0.0032
     13 C         139.5756  140.0814  168.2472 C.ar    1  UNL1        0.0372
     14 C         139.3786  139.8729  166.7748 C.ar    1  UNL1        0.1469
     15 C         140.4468  140.2912  165.8085 C.ar    1  UNL1        0.0387
     16 O         138.1131  139.2460  166.2688 O.3     1  UNL1       -0.4045
     17 C         137.7455  137.8539  166.6894 C.3     1  UNL1        0.5753
     18 F         137.3778  136.4618  167.1100 F       1  UNL1       -0.1328
     19 F         136.9329  138.4104  167.8208 F       1  UNL1       -0.1328
     20 F         138.5582  137.2975  165.5580 F       1  UNL1       -0.1328
     21 N         141.0297  145.9221  163.2673 N.pl3   1  UNL1       -0.3168
     22 H         141.1077  146.7281  163.8273 H       1  UNL1        0.1482
     23 C         139.9117  145.8042  162.2743 C.3     1  UNL1        0.0883
     24 C         137.6347  140.4141  160.9465 C.3     1  UNL1        0.0896
     25 N         138.2040  141.7617  161.2784 N.3     1  UNL1       -0.2715
     26 C         137.7668  142.4744  162.5238 C.3     1  UNL1        0.0722
     27 C         138.3360  143.8219  162.8557 C.3     1  UNL1        0.0191
     28 C         139.3424  144.4566  161.9424 C.3     1  UNL1        0.0223
     29 C         139.7796  143.7439  160.6970 C.3     1  UNL1        0.0191
     30 C         139.2103  142.3964  160.3651 C.3     1  UNL1        0.0722
@<TRIPOS>BOND
     1    24    25    1
     2    25    26    1
     3    26    27    1
     4    27    28    1
     5    28    23    1
     6    23    21    1
     7    21     1    1
     8     1     2   ar
     9     2     3   ar
    10     3     4   ar
    11     4     5   ar
    12     5     6   ar
    13     6     7   ar
    14     7    10    1
    15    10    11   ar
    16    11    12   ar
    17    12    13   ar
    18    13    14   ar
    19    14    16    1
    20    16    17    1
    21    17    18    1
    22    17    19    1
    23    17    20    1
    24    14    15   ar
    25     7     8   ar
    26     8     9   ar
    27    28    29    1
    28    29    30    1
    29    30    25    1
    30     9     1   ar
    31     8     4   ar
    32    15    10   ar
    33    21    22    1
@<TRIPOS>MOLECULE
*****
 30 33 0 0 0
SMALL
GASTEIGER

@<TRIPOS>ATOM
      1 C         138.0752  140.0924  163.2797 C.ar    1  UNL1        0.1488
      2 C         138.0351  138.8599  162.4258 C.ar    1  UNL1        0.0390
      3 C         139.1138  137.8252  162.5512 C.ar    1  UNL1        0.0417
      4 C         140.2325  138.0229  163.5306 C.ar    1  UNL1        0.1640
      5 N         141.4268  137.1824  163.8734 N.ar    1  UNL1       -0.2234
      6 C         142.2049  137.8955  164.9392 C.ar    1  UNL1        0.1197
      7 C         141.4916  139.1767  165.2551 C.ar    1  UNL1        0.1037
      8 N         140.2726  139.2554  164.3846 N.ar    1  UNL1       -0.2096
      9 N         139.1940  140.2902  164.2591 N.ar    1  UNL1       -0.1489
     10 C         141.9218  140.1996  166.2644 C.ar    1  UNL1        0.0223
     11 C         142.9202  141.2531  165.8858 C.ar    1  UNL1        0.0017
     12 C         143.3503  142.2760  166.8950 C.ar    1  UNL1        0.0032
     13 C         142.7822  142.2454  168.2829 C.ar    1  UNL1        0.0372
     14 C         141.7839  141.1919  168.6615 C.ar    1  UNL1        0.1469
     15 C         141.3537  140.1690  167.6523 C.ar    1  UNL1        0.0387
     16 O         141.2157  141.1612  170.0495 O.3     1  UNL1       -0.4045
     17 C         139.8497  140.5893  170.2883 C.3     1  UNL1        0.5753
     18 F         138.4837  140.0172  170.5271 F       1  UNL1       -0.1328
     19 F         139.2328  141.9000  169.8991 F       1  UNL1       -0.1328
     20 F         140.4667  139.2785  170.6775 F       1  UNL1       -0.1328
     21 N         136.9965  141.1272  163.1543 N.pl3   1  UNL1       -0.3168
     22 H         136.0728  140.8533  162.9519 H       1  UNL1        0.1482
     23 C         137.3253  142.5792  163.3371 C.3     1  UNL1        0.0883
     24 C         140.8164  145.3902  159.3483 C.3     1  UNL1        0.0896
     25 N         139.9436  144.6874  160.3455 N.3     1  UNL1       -0.2715
     26 C         139.6863  145.3088  161.6863 C.3     1  UNL1        0.0722
     27 C         138.8135  144.6061  162.6835 C.3     1  UNL1        0.0191
     28 C         138.1981  143.2820  162.3399 C.3     1  UNL1        0.0223
     29 C         138.4554  142.6607  160.9991 C.3     1  UNL1        0.0191
     30 C         139.3282  143.3634  160.0019 C.3     1  UNL1        0.0722
@<TRIPOS>BOND
     1    24    25    1
     2    25    26    1
     3    26    27    1
     4    27    28    1
     5    28    23    1
     6    23    21    1
     7    21     1    1
     8     1     2   ar
     9     2     3   ar
    10     3     4   ar
    11     4     5   ar
    12     5     6   ar
    13     6     7   ar
    14     7    10    1
    15    10    11   ar
    16    11    12   ar
    17    12    13   ar
    18    13    14   ar
    19    14    16    1
    20    16    17    1
    21    17    18    1
    22    17    19    1
    23    17    20    1
    24    14    15   ar
    25     7     8   ar
    26     8     9   ar
    27    28    29    1
    28    29    30    1
    29    30    25    1
    30     9     1   ar
    31     8     4   ar
    32    15    10   ar
    33    21    22    1
@<TRIPOS>MOLECULE
*****
 30 33 0 0 0
SMALL
GASTEIGER

@<TRIPOS>ATOM
      1 C         138.0599  140.1040  163.2464 C.ar    1  UNL1        0.1488
      2 C         137.9134  138.8309  162.4669 C.ar    1  UNL1        0.0390
      3 C         138.9211  137.7318  162.6294 C.ar    1  UNL1        0.0417
      4 C         140.0753  137.9058  163.5714 C.ar    1  UNL1        0.1640
      5 N         141.2172  137.0043  163.9370 N.ar    1  UNL1       -0.2234
      6 C         142.0695  137.7204  164.9424 C.ar    1  UNL1        0.1197
      7 C         141.4543  139.0643  165.1982 C.ar    1  UNL1        0.1037
      8 N         140.2219  139.1789  164.3509 N.ar    1  UNL1       -0.2096
      9 N         139.2142  140.2780  164.1884 N.ar    1  UNL1       -0.1489
     10 C         141.9794  140.1101  166.1366 C.ar    1  UNL1        0.0223
     11 C         141.6348  140.0501  167.5952 C.ar    1  UNL1        0.0017
     12 C         142.1599  141.0959  168.5336 C.ar    1  UNL1        0.0032
     13 C         143.0296  142.2017  168.0135 C.ar    1  UNL1        0.0372
     14 C         143.3743  142.2617  166.5548 C.ar    1  UNL1        0.1469
     15 C         142.8492  141.2159  165.6165 C.ar    1  UNL1        0.0387
     16 O         144.2441  143.3676  166.0346 O.3     1  UNL1       -0.4045
     17 C         144.3837  143.5797  164.5562 C.3     1  UNL1        0.5753
     18 F         144.5233  143.7918  163.0778 F       1  UNL1       -0.1328
     19 F         145.5787  142.6731  164.5390 F       1  UNL1       -0.1328
     20 F         143.1887  144.4862  164.5735 F       1  UNL1       -0.1328
     21 N         137.0522  141.2032  163.0839 N.pl3   1  UNL1       -0.3168
     22 H         136.1231  140.9872  162.8403 H       1  UNL1        0.1482
     23 C         137.4601  142.6315  163.2925 C.3     1  UNL1        0.0883
     24 C         140.8492  145.4127  159.1963 C.3     1  UNL1        0.0896
     25 N         140.0019  144.7174  160.2204 N.3     1  UNL1       -0.2715
     26 C         139.3764  143.3919  159.9015 C.3     1  UNL1        0.0722
     27 C         138.5291  142.6966  160.9255 C.3     1  UNL1        0.0191
     28 C         138.3074  143.3268  162.2684 C.3     1  UNL1        0.0223
     29 C         138.9330  144.6523  162.5874 C.3     1  UNL1        0.0191
     30 C         139.7802  145.3476  161.5634 C.3     1  UNL1        0.0722
@<TRIPOS>BOND
     1    24    25    1
     2    25    26    1
     3    26    27    1
     4    27    28    1
     5    28    23    1
     6    23    21    1
     7    21     1    1
     8     1     2   ar
     9     2     3   ar
    10     3     4   ar
    11     4     5   ar
    12     5     6   ar
    13     6     7   ar
    14     7    10    1
    15    10    11   ar
    16    11    12   ar
    17    12    13   ar
    18    13    14   ar
    19    14    16    1
    20    16    17    1
    21    17    18    1
    22    17    19    1
    23    17    20    1
    24    14    15   ar
    25     7     8   ar
    26     8     9   ar
    27    28    29    1
    28    29    30    1
    29    30    25    1
    30     9     1   ar
    31     8     4   ar
    32    15    10   ar
    33    21    22    1
@<TRIPOS>MOLECULE
*****
 30 33 0 0 0
SMALL
GASTEIGER

@<TRIPOS>ATOM
      1 C         141.9291  139.3552  164.4152 C.ar    1  UNL1        0.1488
      2 C         143.2567  138.7309  164.7273 C.ar    1  UNL1        0.0390
      3 C         144.5185  139.3510  164.2047 C.ar    1  UNL1        0.0417
      4 C         144.4527  140.5955  163.3698 C.ar    1  UNL1        0.1640
      5 N         145.5197  141.4264  162.7208 N.ar    1  UNL1       -0.2234
      6 C         144.8515  142.5642  162.0076 C.ar    1  UNL1        0.1197
      7 C         143.3715  142.4366  162.2157 C.ar    1  UNL1        0.1037
      8 N         143.1250  141.2198  163.0576 N.ar    1  UNL1       -0.2096
      9 N         141.8632  140.5997  163.5803 N.ar    1  UNL1       -0.1489
     10 C         142.3222  143.3630  161.6767 C.ar    1  UNL1        0.0223
     11 C         142.3120  143.7178  160.2193 C.ar    1  UNL1        0.0017
     12 C         141.2627  144.6442  159.6802 C.ar    1  UNL1        0.0032
     13 C         140.2235  145.2159  160.5984 C.ar    1  UNL1        0.0372
     14 C         140.2336  144.8610  162.0558 C.ar    1  UNL1        0.1469
     15 C         141.2829  143.9346  162.5949 C.ar    1  UNL1        0.0387
     16 O         139.1943  145.4327  162.9742 O.3     1  UNL1       -0.4045
     17 C         138.4222  144.5282  163.8884 C.3     1  UNL1        0.5753
     18 F         137.6501  143.6238  164.8027 F       1  UNL1       -0.1328
     19 F         139.2535  144.9909  165.0481 F       1  UNL1       -0.1328
     20 F         137.5909  144.0656  162.7287 F       1  UNL1       -0.1328
     21 N         140.6671  138.7351  164.9379 N.pl3   1  UNL1       -0.3168
     22 H         140.5697  137.7556  164.9532 H       1  UNL1        0.1482
     23 C         139.5537  139.6074  165.4371 C.3     1  UNL1        0.0883
     24 C         140.4873  143.3080  170.0669 C.3     1  UNL1        0.0896
     25 N         140.2539  142.3829  168.9094 N.3     1  UNL1       -0.2715
     26 C         139.8674  140.9548  169.1568 C.3     1  UNL1        0.0722
     27 C         139.6340  140.0296  167.9994 C.3     1  UNL1        0.0191
     28 C         139.7871  140.5326  166.5946 C.3     1  UNL1        0.0223
     29 C         140.1736  141.9607  166.3472 C.3     1  UNL1        0.0191
     30 C         140.4070  142.8858  167.5046 C.3     1  UNL1        0.0722
@<TRIPOS>BOND
     1    24    25    1
     2    25    26    1
     3    26    27    1
     4    27    28    1
     5    28    23    1
     6    23    21    1
     7    21     1    1
     8     1     2   ar
     9     2     3   ar
    10     3     4   ar
    11     4     5   ar
    12     5     6   ar
    13     6     7   ar
    14     7    10    1
    15    10    11   ar
    16    11    12   ar
    17    12    13   ar
    18    13    14   ar
    19    14    16    1
    20    16    17    1
    21    17    18    1
    22    17    19    1
    23    17    20    1
    24    14    15   ar
    25     7     8   ar
    26     8     9   ar
    27    28    29    1
    28    29    30    1
    29    30    25    1
    30     9     1   ar
    31     8     4   ar
    32    15    10   ar
    33    21    22    1
@<TRIPOS>MOLECULE
*****
 30 33 0 0 0
SMALL
GASTEIGER

@<TRIPOS>ATOM
      1 C         141.5701  144.4520  163.6849 C.ar    1  UNL1        0.1488
      2 C         143.0112  144.6438  163.3159 C.ar    1  UNL1        0.0390
      3 C         144.0201  143.5880  163.6587 C.ar    1  UNL1        0.0417
      4 C         143.5877  142.3405  164.3705 C.ar    1  UNL1        0.1640
      5 N         144.3497  141.1349  164.8355 N.ar    1  UNL1       -0.2234
      6 C         143.3795  140.1982  165.4920 C.ar    1  UNL1        0.1197
      7 C         142.0178  140.8247  165.4327 C.ar    1  UNL1        0.1037
      8 N         142.1466  142.1487  164.7396 N.ar    1  UNL1       -0.2096
      9 N         141.1378  143.2045  164.3968 N.ar    1  UNL1       -0.1489
     10 C         140.7501  140.2314  165.9718 C.ar    1  UNL1        0.0223
     11 C         139.7910  139.5433  165.0462 C.ar    1  UNL1        0.0017
     12 C         138.5232  138.9500  165.5853 C.ar    1  UNL1        0.0032
     13 C         138.2144  139.0447  167.0501 C.ar    1  UNL1        0.0372
     14 C         139.1734  139.7328  167.9757 C.ar    1  UNL1        0.1469
     15 C         140.4412  140.3261  167.4366 C.ar    1  UNL1        0.0387
     16 O         138.8646  139.8276  169.4406 O.3     1  UNL1       -0.4045
     17 C         139.8073  140.5448  170.3610 C.3     1  UNL1        0.5753
     18 F         140.7500  141.2621  171.2813 F       1  UNL1       -0.1328
     19 F         140.5832  139.2758  170.5551 F       1  UNL1       -0.1328
     20 F         139.0313  141.8138  170.1667 F       1  UNL1       -0.1328
     21 N         140.5612  145.5078  163.3422 N.pl3   1  UNL1       -0.3168
     22 H         140.8515  146.4371  163.1955 H       1  UNL1        0.1482
     23 C         139.1099  145.1479  163.2228 C.3     1  UNL1        0.0883
     24 C         137.5096  139.9138  160.7644 C.3     1  UNL1        0.0896
     25 N         137.9097  141.2223  161.3790 N.3     1  UNL1       -0.2715
     26 C         138.7697  142.1805  160.6096 C.3     1  UNL1        0.0722
     27 C         139.1698  143.4890  161.2241 C.3     1  UNL1        0.0191
     28 C         138.7098  143.8393  162.6082 C.3     1  UNL1        0.0223
     29 C         137.8497  142.8811  163.3777 C.3     1  UNL1        0.0191
     30 C         137.4496  141.5726  162.7631 C.3     1  UNL1        0.0722
@<TRIPOS>BOND
     1    24    25    1
     2    25    26    1
     3    26    27    1
     4    27    28    1
     5    28    23    1
     6    23    21    1
     7    21     1    1
     8     1     2   ar
     9     2     3   ar
    10     3     4   ar
    11     4     5   ar
    12     5     6   ar
    13     6     7   ar
    14     7    10    1
    15    10    11   ar
    16    11    12   ar
    17    12    13   ar
    18    13    14   ar
    19    14    16    1
    20    16    17    1
    21    17    18    1
    22    17    19    1
    23    17    20    1
    24    14    15   ar
    25     7     8   ar
    26     8     9   ar
    27    28    29    1
    28    29    30    1
    29    30    25    1
    30     9     1   ar
    31     8     4   ar
    32    15    10   ar
    33    21    22    1
