@<TRIPOS>MOLECULE
*****
 38 42 0 0 0
SMALL
GASTEIGER

@<TRIPOS>ATOM
      1 C         142.4721  139.5889  162.6096 C.ar    1  UNL1        0.1200
      2 N         141.6034  138.8777  161.6148 N.ar    1  UNL1       -0.2309
      3 C         142.3234  138.8611  160.2990 C.ar    1  UNL1        0.0997
      4 C         143.6371  139.5620  160.4806 C.ar    1  UNL1        0.0961
      5 N         143.7290  140.0117  161.9087 N.ar    1  UNL1       -0.3123
      6 C         141.8184  138.2508  159.0253 C.ar    1  UNL1        0.0193
      7 C         140.4219  138.5373  158.5584 C.ar    1  UNL1        0.0038
      8 C         139.9169  137.9270  157.2846 C.ar    1  UNL1        0.0296
      9 C         140.8083  137.0301  156.4778 C.ar    1  UNL1        0.1440
     10 F         140.3033  136.4198  155.2040 F       1  UNL1       -0.2042
     11 C         142.2048  136.7436  156.9446 C.ar    1  UNL1        0.0988
     12 C         142.7098  137.3539  158.2184 C.ar    1  UNL1        0.0077
     13 C         143.0961  135.8468  156.1377 C.3     1  UNL1        0.4207
     14 F         143.9875  134.9499  155.3308 F       1  UNL1       -0.1658
     15 F         143.9405  137.0271  155.7585 F       1  UNL1       -0.1658
     16 F         142.2517  134.6664  156.5169 F       1  UNL1       -0.1658
     17 N         141.4815  140.3244  166.9371 N.pl3   1  UNL1       -0.2924
     18 C         140.8883  141.1992  165.8728 C.3     1  UNL1        0.0926
     19 C         141.2185  140.9540  164.4302 C.3     1  UNL1        0.0290
     20 C         142.1419  139.8341  164.0521 C.3     1  UNL1        0.0603
     21 C         142.7351  138.9592  165.1165 C.3     1  UNL1        0.0290
     22 C         142.4049  139.2044  166.5590 C.3     1  UNL1        0.0926
     23 N         142.4776  142.7255  171.4363 N.pl3   1  UNL1       -0.3418
     24 C         141.6494  141.7702  170.6293 C.ar    1  UNL1        0.1405
     25 N         140.4911  141.0600  171.2647 N.ar    1  UNL1       -0.2085
     26 C         139.6628  140.1046  170.4577 C.ar    1  UNL1        0.2013
     27 N         139.9930  139.8595  169.0152 N.ar    1  UNL1       -0.2080
     28 C         141.1513  140.5696  168.3797 C.ar    1  UNL1        0.1468
     29 C         141.9796  141.5250  169.1868 C.ar    1  UNL1        0.1202
     30 CL        143.1380  142.2351  168.5513 Cl      1  UNL1       -0.0764
     31 H         142.2610  142.8864  172.3831 H       1  UNL1        0.1437
     32 H         143.2379  143.1916  171.0192 H       1  UNL1        0.1437
     33 C         144.8764  140.7541  162.5271 C.3     1  UNL1        0.1245
     34 C         145.0891  142.2048  162.2104 C.3     1  UNL1        0.0969
     35 N         144.5060  143.2604  163.1023 N.3     1  UNL1       -0.2710
     36 C         143.9894  144.6539  162.8991 C.3     1  UNL1        0.0736
     37 C         143.6814  144.7533  164.3637 C.3     1  UNL1        0.0346
     38 C         144.1980  143.3598  164.5669 C.3     1  UNL1        0.0736
@<TRIPOS>BOND
     1    23    24    1
     2    24    25   ar
     3    25    26   ar
     4    26    27   ar
     5    27    28   ar
     6    28    17    1
     7    17    18    1
     8    18    19    1
     9    19    20    1
    10    20     1    1
    11     1     2   ar
    12     2     3   ar
    13     3     6    1
    14     6     7   ar
    15     7     8   ar
    16     8     9   ar
    17     9    10    1
    18     9    11   ar
    19    11    13    1
    20    13    14    1
    21    13    15    1
    22    13    16    1
    23    11    12   ar
    24     3     4   ar
    25     4     5   ar
    26     5    33    1
    27    33    34    1
    28    34    35    1
    29    35    36    1
    30    36    37    1
    31    37    38    1
    32    20    21    1
    33    21    22    1
    34    28    29   ar
    35    29    30    1
    36    29    24   ar
    37    22    17    1
    38     5     1   ar
    39    38    35    1
    40    12     6   ar
    41    23    31    1
    42    23    32    1
@<TRIPOS>MOLECULE
*****
 38 42 0 0 0
SMALL
GASTEIGER

@<TRIPOS>ATOM
      1 C         143.0169  140.3673  163.5306 C.ar    1  UNL1        0.1200
      2 N         142.2887  139.9922  164.7872 N.ar    1  UNL1       -0.2309
      3 C         142.8440  140.8186  165.9091 C.ar    1  UNL1        0.0997
      4 C         143.9155  141.7045  165.3458 C.ar    1  UNL1        0.0961
      5 N         144.0223  141.4255  163.8758 N.ar    1  UNL1       -0.3123
      6 C         142.4050  140.7680  167.3425 C.ar    1  UNL1        0.0193
      7 C         142.6794  139.5462  168.1683 C.ar    1  UNL1        0.0038
      8 C         142.2404  139.4957  169.6017 C.ar    1  UNL1        0.0296
      9 C         141.5271  140.6670  170.2093 C.ar    1  UNL1        0.1440
     10 F         141.0881  140.6164  171.6428 F       1  UNL1       -0.2042
     11 C         141.2527  141.8888  169.3836 C.ar    1  UNL1        0.0988
     12 C         141.6917  141.9393  167.9501 C.ar    1  UNL1        0.0077
     13 C         140.5394  143.0600  169.9912 C.3     1  UNL1        0.4207
     14 F         139.8260  144.2313  170.5990 F       1  UNL1       -0.1658
     15 F         139.2651  142.2692  170.0197 F       1  UNL1       -0.1658
     16 F         141.8136  143.8509  169.9628 F       1  UNL1       -0.1658
     17 N         142.3094  138.6238  159.4429 N.pl3   1  UNL1       -0.2924
     18 C         141.9760  140.0610  159.7132 C.3     1  UNL1        0.0926
     19 C         142.2118  140.6422  161.0758 C.3     1  UNL1        0.0290
     20 C         142.7810  139.7861  162.1681 C.3     1  UNL1        0.0603
     21 C         143.1145  138.3488  161.8977 C.3     1  UNL1        0.0290
     22 C         142.8787  137.7677  160.5351 C.3     1  UNL1        0.0926
     23 N         139.0395  136.9187  155.7822 N.pl3   1  UNL1       -0.3418
     24 C         140.4387  137.1901  156.2499 C.ar    1  UNL1        0.1405
     25 N         141.6020  136.8803  155.3551 N.ar    1  UNL1       -0.2085
     26 C         143.0011  137.1516  155.8229 C.ar    1  UNL1        0.2013
     27 N         143.2369  137.7328  157.1854 N.ar    1  UNL1       -0.2080
     28 C         142.0736  138.0426  158.0802 C.ar    1  UNL1        0.1468
     29 C         140.6745  137.7713  157.6125 C.ar    1  UNL1        0.1202
     30 CL        139.5112  138.0811  158.5074 Cl      1  UNL1       -0.0764
     31 H         138.8847  136.5373  154.8879 H       1  UNL1        0.1437
     32 H         138.2760  137.1221  156.3695 H       1  UNL1        0.1437
     33 C         144.9684  142.0884  162.9191 C.3     1  UNL1        0.1245
     34 C         144.5521  143.3342  162.1947 C.3     1  UNL1        0.0969
     35 N         143.4437  144.1845  162.7408 N.3     1  UNL1       -0.2710
     36 C         143.3036  145.1310  163.8961 C.3     1  UNL1        0.0736
     37 C         141.8761  145.3870  163.5131 C.3     1  UNL1        0.0346
     38 C         142.0162  144.4405  162.3579 C.3     1  UNL1        0.0736
@<TRIPOS>BOND
     1    23    24    1
     2    24    25   ar
     3    25    26   ar
     4    26    27   ar
     5    27    28   ar
     6    28    17    1
     7    17    18    1
     8    18    19    1
     9    19    20    1
    10    20     1    1
    11     1     2   ar
    12     2     3   ar
    13     3     6    1
    14     6     7   ar
    15     7     8   ar
    16     8     9   ar
    17     9    10    1
    18     9    11   ar
    19    11    13    1
    20    13    14    1
    21    13    15    1
    22    13    16    1
    23    11    12   ar
    24     3     4   ar
    25     4     5   ar
    26     5    33    1
    27    33    34    1
    28    34    35    1
    29    35    36    1
    30    36    37    1
    31    37    38    1
    32    20    21    1
    33    21    22    1
    34    28    29   ar
    35    29    30    1
    36    29    24   ar
    37    22    17    1
    38     5     1   ar
    39    38    35    1
    40    12     6   ar
    41    23    31    1
    42    23    32    1
@<TRIPOS>MOLECULE
*****
 38 42 0 0 0
SMALL
GASTEIGER

@<TRIPOS>ATOM
      1 C         142.8194  142.5304  162.6439 C.ar    1  UNL1        0.1200
      2 N         143.4276  141.6005  161.6363 N.ar    1  UNL1       -0.2309
      3 C         143.3936  142.2794  160.2991 C.ar    1  UNL1        0.0997
      4 C         142.7644  143.6290  160.4804 C.ar    1  UNL1        0.0961
      5 N         142.4095  143.7841  161.9295 N.ar    1  UNL1       -0.3123
      6 C         143.9000  141.7090  159.0076 C.ar    1  UNL1        0.0193
      7 C         143.3724  140.3960  158.5096 C.ar    1  UNL1        0.0038
      8 C         143.8788  139.8256  157.2180 C.ar    1  UNL1        0.0296
      9 C         144.9126  140.5681  156.4244 C.ar    1  UNL1        0.1440
     10 F         145.4190  139.9976  155.1328 F       1  UNL1       -0.2042
     11 C         145.4402  141.8810  156.9224 C.ar    1  UNL1        0.0988
     12 C         144.9338  142.4514  158.2140 C.ar    1  UNL1        0.0077
     13 C         146.4740  142.6234  156.1288 C.3     1  UNL1        0.4207
     14 F         147.5080  143.3659  155.3351 F       1  UNL1       -0.1658
     15 F         147.4796  142.3857  157.2161 F       1  UNL1       -0.1658
     16 F         145.4686  142.8612  155.0413 F       1  UNL1       -0.1658
     17 N         142.3133  141.7044  167.0384 N.pl3   1  UNL1       -0.2924
     18 C         141.3043  141.1864  166.0568 C.3     1  UNL1        0.0926
     19 C         141.4729  141.4617  164.5919 C.3     1  UNL1        0.0290
     20 C         142.6507  142.2551  164.1087 C.3     1  UNL1        0.0603
     21 C         143.6597  142.7731  165.0903 C.3     1  UNL1        0.0290
     22 C         143.4910  142.4978  166.5551 C.3     1  UNL1        0.0926
     23 N         139.9720  142.7127  171.5663 N.pl3   1  UNL1       -0.3418
     24 C         140.9739  141.9332  170.7672 C.ar    1  UNL1        0.1405
     25 N         141.8071  140.8784  171.4329 N.ar    1  UNL1       -0.2085
     26 C         142.8091  140.0990  170.6337 C.ar    1  UNL1        0.2013
     27 N         142.9778  140.3743  169.1689 N.ar    1  UNL1       -0.2080
     28 C         142.1446  141.4290  168.5033 C.ar    1  UNL1        0.1468
     29 C         141.1426  142.2085  169.3024 C.ar    1  UNL1        0.1202
     30 CL        140.3094  143.2633  168.6366 Cl      1  UNL1       -0.0764
     31 H         139.8613  142.5320  172.5277 H       1  UNL1        0.1437
     32 H         139.4251  143.4050  171.1294 H       1  UNL1        0.1437
     33 C         141.7590  144.9825  162.5545 C.3     1  UNL1        0.1245
     34 C         140.3036  145.2560  162.3154 C.3     1  UNL1        0.0969
     35 N         139.2789  144.7785  163.3012 N.3     1  UNL1       -0.2710
     36 C         137.9297  144.1311  163.1992 C.3     1  UNL1        0.0736
     37 C         137.8298  144.1033  164.6955 C.3     1  UNL1        0.0346
     38 C         139.1790  144.7508  164.7976 C.3     1  UNL1        0.0736
@<TRIPOS>BOND
     1    23    24    1
     2    24    25   ar
     3    25    26   ar
     4    26    27   ar
     5    27    28   ar
     6    28    17    1
     7    17    18    1
     8    18    19    1
     9    19    20    1
    10    20     1    1
    11     1     2   ar
    12     2     3   ar
    13     3     6    1
    14     6     7   ar
    15     7     8   ar
    16     8     9   ar
    17     9    10    1
    18     9    11   ar
    19    11    13    1
    20    13    14    1
    21    13    15    1
    22    13    16    1
    23    11    12   ar
    24     3     4   ar
    25     4     5   ar
    26     5    33    1
    27    33    34    1
    28    34    35    1
    29    35    36    1
    30    36    37    1
    31    37    38    1
    32    20    21    1
    33    21    22    1
    34    28    29   ar
    35    29    30    1
    36    29    24   ar
    37    22    17    1
    38     5     1   ar
    39    38    35    1
    40    12     6   ar
    41    23    31    1
    42    23    32    1
@<TRIPOS>MOLECULE
*****
 38 42 0 0 0
SMALL
GASTEIGER

@<TRIPOS>ATOM
      1 C         141.0194  139.9256  163.2062 C.ar    1  UNL1        0.1200
      2 N         141.5680  140.3027  164.5504 N.ar    1  UNL1       -0.2309
      3 C         140.5010  140.0502  165.5740 C.ar    1  UNL1        0.0997
      4 C         139.2929  139.5170  164.8624 C.ar    1  UNL1        0.0961
      5 N         139.6133  139.4400  163.3990 N.ar    1  UNL1       -0.3123
      6 C         140.6209  140.2890  167.0500 C.ar    1  UNL1        0.0193
      7 C         139.4646  139.9840  167.9555 C.ar    1  UNL1        0.0038
      8 C         139.5845  140.2228  169.4315 C.ar    1  UNL1        0.0296
      9 C         140.8608  140.7665  170.0020 C.ar    1  UNL1        0.1440
     10 F         140.9808  141.0052  171.4780 F       1  UNL1       -0.2042
     11 C         142.0172  141.0715  169.0965 C.ar    1  UNL1        0.0988
     12 C         141.8972  140.8327  167.6205 C.ar    1  UNL1        0.0077
     13 C         143.2934  141.6152  169.6670 C.3     1  UNL1        0.4207
     14 F         144.5697  142.1589  170.2376 F       1  UNL1       -0.1658
     15 F         143.5361  140.3109  170.3670 F       1  UNL1       -0.1658
     16 F         143.0507  142.9194  168.9671 F       1  UNL1       -0.1658
     17 N         143.2077  140.2023  159.2839 N.pl3   1  UNL1       -0.2924
     18 C         142.0173  141.0777  159.5419 C.3     1  UNL1        0.0926
     19 C         141.2878  140.9855  160.8494 C.3     1  UNL1        0.0290
     20 C         141.7488  140.0179  161.8988 C.3     1  UNL1        0.0603
     21 C         142.9392  139.1424  161.6407 C.3     1  UNL1        0.0290
     22 C         143.6686  139.2347  160.3332 C.3     1  UNL1        0.0926
     23 N         146.3810  142.7755  156.0731 N.pl3   1  UNL1       -0.3418
     24 C         145.5238  141.5811  156.3710 C.ar    1  UNL1        0.1405
     25 N         145.3960  140.4791  155.3616 N.ar    1  UNL1       -0.2085
     26 C         144.5388  139.2847  155.6595 C.ar    1  UNL1        0.2013
     27 N         143.8094  139.1925  156.9669 N.ar    1  UNL1       -0.2080
     28 C         143.9371  140.2946  157.9764 C.ar    1  UNL1        0.1468
     29 C         144.7943  141.4889  157.6784 C.ar    1  UNL1        0.1202
     30 CL        144.9221  142.5910  158.6880 Cl      1  UNL1       -0.0764
     31 H         146.8597  142.8360  155.2150 H       1  UNL1        0.1437
     32 H         146.4648  143.4988  156.7357 H       1  UNL1        0.1437
     33 C         138.6898  138.9615  162.3183 C.3     1  UNL1        0.1245
     34 C         137.7716  139.9297  161.6331 C.3     1  UNL1        0.0969
     35 N         137.7559  141.3708  162.0487 N.3     1  UNL1       -0.2710
     36 C         138.1359  142.6671  161.3965 C.3     1  UNL1        0.0736
     37 C         137.7337  143.4089  162.6366 C.3     1  UNL1        0.0346
     38 C         137.3537  142.1127  163.2888 C.3     1  UNL1        0.0736
@<TRIPOS>BOND
     1    23    24    1
     2    24    25   ar
     3    25    26   ar
     4    26    27   ar
     5    27    28   ar
     6    28    17    1
     7    17    18    1
     8    18    19    1
     9    19    20    1
    10    20     1    1
    11     1     2   ar
    12     2     3   ar
    13     3     6    1
    14     6     7   ar
    15     7     8   ar
    16     8     9   ar
    17     9    10    1
    18     9    11   ar
    19    11    13    1
    20    13    14    1
    21    13    15    1
    22    13    16    1
    23    11    12   ar
    24     3     4   ar
    25     4     5   ar
    26     5    33    1
    27    33    34    1
    28    34    35    1
    29    35    36    1
    30    36    37    1
    31    37    38    1
    32    20    21    1
    33    21    22    1
    34    28    29   ar
    35    29    30    1
    36    29    24   ar
    37    22    17    1
    38     5     1   ar
    39    38    35    1
    40    12     6   ar
    41    23    31    1
    42    23    32    1
@<TRIPOS>MOLECULE
*****
 38 42 0 0 0
SMALL
GASTEIGER

@<TRIPOS>ATOM
      1 C         140.0516  142.5858  162.5782 C.ar    1  UNL1        0.1200
      2 N         140.8988  143.3563  161.6093 N.ar    1  UNL1       -0.2309
      3 C         140.2248  143.3156  160.2699 C.ar    1  UNL1        0.0997
      4 C         138.9610  142.5199  160.4110 C.ar    1  UNL1        0.0961
      5 N         138.8540  142.0690  161.8375 N.ar    1  UNL1       -0.3123
      6 C         140.7264  143.9577  159.0105 C.ar    1  UNL1        0.0193
      7 C         142.1619  143.7957  158.6064 C.ar    1  UNL1        0.0038
      8 C         142.6635  144.4378  157.3470 C.ar    1  UNL1        0.0296
      9 C         141.7297  145.2420  156.4918 C.ar    1  UNL1        0.1440
     10 F         142.2314  145.8841  155.2325 F       1  UNL1       -0.2042
     11 C         140.2943  145.4040  156.8960 C.ar    1  UNL1        0.0988
     12 C         139.7927  144.7619  158.1553 C.ar    1  UNL1        0.0077
     13 C         139.3606  146.2082  156.0408 C.3     1  UNL1        0.4207
     14 F         138.4269  147.0124  155.1855 F       1  UNL1       -0.1658
     15 F         139.3711  147.3067  157.0622 F       1  UNL1       -0.1658
     16 F         139.3501  145.1098  155.0193 F       1  UNL1       -0.1658
     17 N         140.9459  141.9387  166.9407 N.pl3   1  UNL1       -0.2924
     18 C         139.9580  142.9882  166.5252 C.3     1  UNL1        0.0926
     19 C         139.6599  143.2039  165.0710 C.3     1  UNL1        0.0290
     20 C         140.3497  142.3701  164.0323 C.3     1  UNL1        0.0603
     21 C         141.3376  141.3206  164.4478 C.3     1  UNL1        0.0290
     22 C         141.6357  141.1049  165.9019 C.3     1  UNL1        0.0926
     23 N         139.9550  139.5078  171.4250 N.pl3   1  UNL1       -0.3418
     24 C         140.7485  140.5075  170.6370 C.ar    1  UNL1        0.1405
     25 N         141.8401  141.2914  171.3031 N.ar    1  UNL1       -0.2085
     26 C         142.6337  142.2911  170.5151 C.ar    1  UNL1        0.2013
     27 N         142.3356  142.5069  169.0610 N.ar    1  UNL1       -0.2080
     28 C         141.2440  141.7230  168.3949 C.ar    1  UNL1        0.1468
     29 C         140.4505  140.7233  169.1828 C.ar    1  UNL1        0.1202
     30 CL        139.3588  139.9393  168.5166 Cl      1  UNL1       -0.0764
     31 H         140.1507  139.3662  172.3794 H       1  UNL1        0.1437
     32 H         139.2386  138.9933  170.9877 H       1  UNL1        0.1437
     33 C         137.7442  141.2457  162.4210 C.3     1  UNL1        0.1245
     34 C         137.8090  139.7483  162.3598 C.3     1  UNL1        0.0969
     35 N         138.4099  138.9765  163.4970 N.3     1  UNL1       -0.2710
     36 C         138.4805  139.1608  164.9839 C.3     1  UNL1        0.0736
     37 C         139.2598  137.8849  165.1051 C.3     1  UNL1        0.0346
     38 C         139.1892  137.7006  163.6182 C.3     1  UNL1        0.0736
@<TRIPOS>BOND
     1    23    24    1
     2    24    25   ar
     3    25    26   ar
     4    26    27   ar
     5    27    28   ar
     6    28    17    1
     7    17    18    1
     8    18    19    1
     9    19    20    1
    10    20     1    1
    11     1     2   ar
    12     2     3   ar
    13     3     6    1
    14     6     7   ar
    15     7     8   ar
    16     8     9   ar
    17     9    10    1
    18     9    11   ar
    19    11    13    1
    20    13    14    1
    21    13    15    1
    22    13    16    1
    23    11    12   ar
    24     3     4   ar
    25     4     5   ar
    26     5    33    1
    27    33    34    1
    28    34    35    1
    29    35    36    1
    30    36    37    1
    31    37    38    1
    32    20    21    1
    33    21    22    1
    34    28    29   ar
    35    29    30    1
    36    29    24   ar
    37    22    17    1
    38     5     1   ar
    39    38    35    1
    40    12     6   ar
    41    23    31    1
    42    23    32    1
@<TRIPOS>MOLECULE
*****
 38 42 0 0 0
SMALL
GASTEIGER

@<TRIPOS>ATOM
      1 C         142.1812  140.8329  163.4228 C.ar    1  UNL1        0.1200
      2 N         141.8457  141.3553  164.7883 N.ar    1  UNL1       -0.2309
      3 C         142.2345  140.3110  165.7925 C.ar    1  UNL1        0.0997
      4 C         142.8103  139.1433  165.0476 C.ar    1  UNL1        0.0961
      5 N         142.7774  139.4659  163.5831 N.ar    1  UNL1       -0.3123
      6 C         142.0754  140.4161  167.2803 C.ar    1  UNL1        0.0193
      7 C         142.6301  139.3444  168.1714 C.ar    1  UNL1        0.0038
      8 C         142.4710  139.4494  169.6593 C.ar    1  UNL1        0.0296
      9 C         141.7573  140.6261  170.2560 C.ar    1  UNL1        0.1440
     10 F         141.5982  140.7311  171.7438 F       1  UNL1       -0.2042
     11 C         141.2027  141.6977  169.3649 C.ar    1  UNL1        0.0988
     12 C         141.3617  141.5927  167.8771 C.ar    1  UNL1        0.0077
     13 C         140.4890  142.8743  169.9617 C.3     1  UNL1        0.4207
     14 F         139.7753  144.0510  170.5585 F       1  UNL1       -0.1658
     15 F         139.2536  142.0402  170.1289 F       1  UNL1       -0.1658
     16 F         141.7244  143.7085  169.7945 F       1  UNL1       -0.1658
     17 N         141.5160  142.9886  159.5292 N.pl3   1  UNL1       -0.2924
     18 C         142.8080  143.1621  160.2712 C.3     1  UNL1        0.0926
     19 C         143.0297  142.4435  161.5692 C.3     1  UNL1        0.0290
     20 C         141.9595  141.5515  162.1250 C.3     1  UNL1        0.0603
     21 C         140.6675  141.3780  161.3828 C.3     1  UNL1        0.0290
     22 C         140.4458  142.0966  160.0850 C.3     1  UNL1        0.0926
     23 N         139.7489  147.1180  156.9165 N.pl3   1  UNL1       -0.3418
     24 C         140.4107  145.7719  156.9250 C.ar    1  UNL1        0.1405
     25 N         140.8506  145.1443  155.6356 N.ar    1  UNL1       -0.2085
     26 C         141.5124  143.7982  155.6440 C.ar    1  UNL1        0.2013
     27 N         141.7342  143.0796  156.9419 N.ar    1  UNL1       -0.2080
     28 C         141.2942  143.7072  158.2312 C.ar    1  UNL1        0.1468
     29 C         140.6325  145.0533  158.2228 C.ar    1  UNL1        0.1202
     30 CL        140.1925  145.6808  159.5123 Cl      1  UNL1       -0.0764
     31 H         139.6034  147.5896  156.0647 H       1  UNL1        0.1437
     32 H         139.4602  147.5299  157.7628 H       1  UNL1        0.1437
     33 C         143.2565  138.5773  162.4736 C.3     1  UNL1        0.1245
     34 C         142.2665  137.8264  161.6333 C.3     1  UNL1        0.0969
     35 N         140.8223  137.7819  162.0358 N.3     1  UNL1       -0.2710
     36 C         139.5196  138.0571  161.3451 C.3     1  UNL1        0.0736
     37 C         138.7798  137.7188  162.6053 C.3     1  UNL1        0.0346
     38 C         140.0825  137.4436  163.2961 C.3     1  UNL1        0.0736
@<TRIPOS>BOND
     1    23    24    1
     2    24    25   ar
     3    25    26   ar
     4    26    27   ar
     5    27    28   ar
     6    28    17    1
     7    17    18    1
     8    18    19    1
     9    19    20    1
    10    20     1    1
    11     1     2   ar
    12     2     3   ar
    13     3     6    1
    14     6     7   ar
    15     7     8   ar
    16     8     9   ar
    17     9    10    1
    18     9    11   ar
    19    11    13    1
    20    13    14    1
    21    13    15    1
    22    13    16    1
    23    11    12   ar
    24     3     4   ar
    25     4     5   ar
    26     5    33    1
    27    33    34    1
    28    34    35    1
    29    35    36    1
    30    36    37    1
    31    37    38    1
    32    20    21    1
    33    21    22    1
    34    28    29   ar
    35    29    30    1
    36    29    24   ar
    37    22    17    1
    38     5     1   ar
    39    38    35    1
    40    12     6   ar
    41    23    31    1
    42    23    32    1
@<TRIPOS>MOLECULE
*****
 38 42 0 0 0
SMALL
GASTEIGER

@<TRIPOS>ATOM
      1 C         140.5808  140.8919  162.2434 C.ar    1  UNL1        0.1200
      2 N         141.6533  140.2840  161.3888 N.ar    1  UNL1       -0.2309
      3 C         141.1273  140.1816  159.9878 C.ar    1  UNL1        0.0997
      4 C         139.7296  140.7262  159.9765 C.ar    1  UNL1        0.0961
      5 N         139.3919  141.1652  161.3705 N.ar    1  UNL1       -0.3123
      6 C         141.8686  139.6312  158.8057 C.ar    1  UNL1        0.0193
      7 C         142.9285  140.4543  158.1355 C.ar    1  UNL1        0.0038
      8 C         143.6698  139.9039  156.9534 C.ar    1  UNL1        0.0296
      9 C         143.3514  138.5304  156.4415 C.ar    1  UNL1        0.1440
     10 F         144.0928  137.9800  155.2594 F       1  UNL1       -0.2042
     11 C         142.2916  137.7072  157.1118 C.ar    1  UNL1        0.0988
     12 C         141.5502  138.2576  158.2939 C.ar    1  UNL1        0.0077
     13 C         141.9732  136.3338  156.6000 C.3     1  UNL1        0.4207
     14 F         141.6548  134.9602  156.0881 F       1  UNL1       -0.1658
     15 F         143.0535  135.7598  157.4680 F       1  UNL1       -0.1658
     16 F         140.8929  136.9076  155.7319 F       1  UNL1       -0.1658
     17 N         140.8777  141.7459  166.6516 N.pl3   1  UNL1       -0.2924
     18 C         141.9122  142.2893  165.7111 C.3     1  UNL1        0.0926
     19 C         141.8132  142.0046  164.2416 C.3     1  UNL1        0.0290
     20 C         140.6797  141.1766  163.7128 C.3     1  UNL1        0.0603
     21 C         139.6452  140.6333  164.6534 C.3     1  UNL1        0.0290
     22 C         139.7442  140.9180  166.1227 C.3     1  UNL1        0.0926
     23 N         142.5651  140.4296  171.3866 N.pl3   1  UNL1       -0.3418
     24 C         141.8204  141.3724  170.4885 C.ar    1  UNL1        0.1405
     25 N         141.1746  142.5998  171.0598 N.ar    1  UNL1       -0.2085
     26 C         140.4298  143.5426  170.1618 C.ar    1  UNL1        0.2013
     27 N         140.3309  143.2580  168.6924 N.ar    1  UNL1       -0.2080
     28 C         140.9766  142.0306  168.1211 C.ar    1  UNL1        0.1468
     29 C         141.7214  141.0878  169.0191 C.ar    1  UNL1        0.1202
     30 CL        142.3672  139.8604  168.4477 Cl      1  UNL1       -0.0764
     31 H         142.6301  140.6164  172.3510 H       1  UNL1        0.1437
     32 H         142.9890  139.6240  171.0116 H       1  UNL1        0.1437
     33 C         138.0933  141.7711  161.8138 C.3     1  UNL1        0.1245
     34 C         137.9817  143.2559  161.9958 C.3     1  UNL1        0.0969
     35 N         138.3679  143.8824  163.3028 N.3     1  UNL1       -0.2710
     36 C         139.4826  144.7741  163.7633 C.3     1  UNL1        0.0736
     37 C         138.9138  144.7683  165.1512 C.3     1  UNL1        0.0346
     38 C         137.7991  143.8766  164.6907 C.3     1  UNL1        0.0736
@<TRIPOS>BOND
     1    23    24    1
     2    24    25   ar
     3    25    26   ar
     4    26    27   ar
     5    27    28   ar
     6    28    17    1
     7    17    18    1
     8    18    19    1
     9    19    20    1
    10    20     1    1
    11     1     2   ar
    12     2     3   ar
    13     3     6    1
    14     6     7   ar
    15     7     8   ar
    16     8     9   ar
    17     9    10    1
    18     9    11   ar
    19    11    13    1
    20    13    14    1
    21    13    15    1
    22    13    16    1
    23    11    12   ar
    24     3     4   ar
    25     4     5   ar
    26     5    33    1
    27    33    34    1
    28    34    35    1
    29    35    36    1
    30    36    37    1
    31    37    38    1
    32    20    21    1
    33    21    22    1
    34    28    29   ar
    35    29    30    1
    36    29    24   ar
    37    22    17    1
    38     5     1   ar
    39    38    35    1
    40    12     6   ar
    41    23    31    1
    42    23    32    1
@<TRIPOS>MOLECULE
*****
 38 42 0 0 0
SMALL
GASTEIGER

@<TRIPOS>ATOM
      1 C         141.5193  140.4283  163.0180 C.ar    1  UNL1        0.1200
      2 N         141.8527  139.9346  164.3946 N.ar    1  UNL1       -0.2309
      3 C         141.3417  140.9396  165.3840 C.ar    1  UNL1        0.0997
      4 C         140.6924  142.0545  164.6187 C.ar    1  UNL1        0.0961
      5 N         140.8021  141.7384  163.1565 N.ar    1  UNL1       -0.3123
      6 C         141.4593  140.8462  166.8764 C.ar    1  UNL1        0.0193
      7 C         142.3391  139.8008  167.4955 C.ar    1  UNL1        0.0038
      8 C         142.4567  139.7074  168.9879 C.ar    1  UNL1        0.0296
      9 C         141.6946  140.6594  169.8613 C.ar    1  UNL1        0.1440
     10 F         141.8122  140.5660  171.3537 F       1  UNL1       -0.2042
     11 C         140.8148  141.7048  169.2422 C.ar    1  UNL1        0.0988
     12 C         140.6972  141.7982  167.7498 C.ar    1  UNL1        0.0077
     13 C         140.0527  142.6567  170.1157 C.3     1  UNL1        0.4207
     14 F         139.2905  143.6087  170.9892 F       1  UNL1       -0.1658
     15 F         141.1379  143.6787  169.9489 F       1  UNL1       -0.1658
     16 F         138.9673  141.6348  170.2825 F       1  UNL1       -0.1658
     17 N         142.4983  138.3448  159.1515 N.pl3   1  UNL1       -0.2924
     18 C         143.6027  138.7973  160.0601 C.3     1  UNL1        0.0926
     19 C         143.2763  139.4918  161.3490 C.3     1  UNL1        0.0290
     20 C         141.8456  139.7338  161.7292 C.3     1  UNL1        0.0603
     21 C         140.7413  139.2812  160.8205 C.3     1  UNL1        0.0290
     22 C         141.0676  138.5867  159.5317 C.3     1  UNL1        0.0926
     23 N         143.7515  138.5640  154.1134 N.pl3   1  UNL1       -0.3418
     24 C         143.4512  137.7599  155.3436 C.ar    1  UNL1        0.1405
     25 N         143.4773  136.2613  155.2848 N.ar    1  UNL1       -0.2085
     26 C         143.1770  135.4572  156.5150 C.ar    1  UNL1        0.2013
     27 N         142.8507  136.1516  157.8038 N.ar    1  UNL1       -0.2080
     28 C         142.8247  137.6502  157.8625 C.ar    1  UNL1        0.1468
     29 C         143.1249  138.4544  156.6324 C.ar    1  UNL1        0.1202
     30 CL        143.0989  139.9530  156.6912 Cl      1  UNL1       -0.0764
     31 H         143.9657  138.1082  153.2675 H       1  UNL1        0.1437
     32 H         143.7344  139.5476  154.1520 H       1  UNL1        0.1437
     33 C         140.2854  142.5841  162.0305 C.3     1  UNL1        0.1245
     34 C         141.0430  143.8054  161.6009 C.3     1  UNL1        0.0969
     35 N         142.1184  144.3693  162.4815 N.3     1  UNL1       -0.2710
     36 C         142.1516  145.3321  163.6312 C.3     1  UNL1        0.0736
     37 C         143.6394  145.1666  163.7268 C.3     1  UNL1        0.0346
     38 C         143.6062  144.2038  162.5771 C.3     1  UNL1        0.0736
@<TRIPOS>BOND
     1    23    24    1
     2    24    25   ar
     3    25    26   ar
     4    26    27   ar
     5    27    28   ar
     6    28    17    1
     7    17    18    1
     8    18    19    1
     9    19    20    1
    10    20     1    1
    11     1     2   ar
    12     2     3   ar
    13     3     6    1
    14     6     7   ar
    15     7     8   ar
    16     8     9   ar
    17     9    10    1
    18     9    11   ar
    19    11    13    1
    20    13    14    1
    21    13    15    1
    22    13    16    1
    23    11    12   ar
    24     3     4   ar
    25     4     5   ar
    26     5    33    1
    27    33    34    1
    28    34    35    1
    29    35    36    1
    30    36    37    1
    31    37    38    1
    32    20    21    1
    33    21    22    1
    34    28    29   ar
    35    29    30    1
    36    29    24   ar
    37    22    17    1
    38     5     1   ar
    39    38    35    1
    40    12     6   ar
    41    23    31    1
    42    23    32    1
@<TRIPOS>MOLECULE
*****
 38 42 0 0 0
SMALL
GASTEIGER

@<TRIPOS>ATOM
      1 C         142.4919  139.6980  162.7966 C.ar    1  UNL1        0.1200
      2 N         141.5918  139.4143  163.9625 N.ar    1  UNL1       -0.2309
      3 C         142.2127  140.0206  165.1859 C.ar    1  UNL1        0.0997
      4 C         143.4968  140.6790  164.7761 C.ar    1  UNL1        0.0961
      5 N         143.6693  140.4796  163.2995 N.ar    1  UNL1       -0.3123
      6 C         141.6488  139.9762  166.5751 C.ar    1  UNL1        0.0193
      7 C         140.1738  140.1423  166.7914 C.ar    1  UNL1        0.0038
      8 C         139.6098  140.0980  168.1807 C.ar    1  UNL1        0.0296
      9 C         140.5209  139.8876  169.3536 C.ar    1  UNL1        0.1440
     10 F         139.9569  139.8433  170.7428 F       1  UNL1       -0.2042
     11 C         141.9959  139.7215  169.1372 C.ar    1  UNL1        0.0988
     12 C         142.5599  139.7659  167.7480 C.ar    1  UNL1        0.0077
     13 C         142.9069  139.5112  170.3101 C.3     1  UNL1        0.4207
     14 F         143.8179  139.3008  171.4831 F       1  UNL1       -0.1658
     15 F         142.7710  138.0260  170.1493 F       1  UNL1       -0.1658
     16 F         143.0429  140.9963  170.4710 F       1  UNL1       -0.1658
     17 N         141.7847  138.4272  158.5381 N.pl3   1  UNL1       -0.2924
     18 C         141.0925  139.6410  159.0833 C.3     1  UNL1        0.0926
     19 C         141.3282  140.0647  160.5029 C.3     1  UNL1        0.0290
     20 C         142.2562  139.2744  161.3771 C.3     1  UNL1        0.0603
     21 C         142.9484  138.0604  160.8318 C.3     1  UNL1        0.0290
     22 C         142.7127  137.6369  159.4124 C.3     1  UNL1        0.0926
     23 N         143.2912  138.3145  153.5664 N.pl3   1  UNL1       -0.3418
     24 C         142.3022  137.9472  154.6327 C.ar    1  UNL1        0.1405
     25 N         141.0776  137.1564  154.2796 N.ar    1  UNL1       -0.2085
     26 C         140.0886  136.7891  155.3459 C.ar    1  UNL1        0.2013
     27 N         140.3243  137.2127  156.7654 N.ar    1  UNL1       -0.2080
     28 C         141.5490  138.0035  157.1185 C.ar    1  UNL1        0.1468
     29 C         142.5379  138.3708  156.0522 C.ar    1  UNL1        0.1202
     30 CL        143.7626  139.1617  156.4054 Cl      1  UNL1       -0.0764
     31 H         143.1365  138.0364  152.6347 H       1  UNL1        0.1437
     32 H         144.0950  138.8335  153.7982 H       1  UNL1        0.1437
     33 C         144.8176  140.9749  162.4712 C.3     1  UNL1        0.1245
     34 C         144.7632  142.3413  161.8545 C.3     1  UNL1        0.0969
     35 N         143.9251  143.4149  162.4828 N.3     1  UNL1       -0.2710
     36 C         144.0197  144.2394  163.7323 C.3     1  UNL1        0.0736
     37 C         142.7398  144.9332  163.3713 C.3     1  UNL1        0.0346
     38 C         142.6452  144.1087  162.1219 C.3     1  UNL1        0.0736
@<TRIPOS>BOND
     1    23    24    1
     2    24    25   ar
     3    25    26   ar
     4    26    27   ar
     5    27    28   ar
     6    28    17    1
     7    17    18    1
     8    18    19    1
     9    19    20    1
    10    20     1    1
    11     1     2   ar
    12     2     3   ar
    13     3     6    1
    14     6     7   ar
    15     7     8   ar
    16     8     9   ar
    17     9    10    1
    18     9    11   ar
    19    11    13    1
    20    13    14    1
    21    13    15    1
    22    13    16    1
    23    11    12   ar
    24     3     4   ar
    25     4     5   ar
    26     5    33    1
    27    33    34    1
    28    34    35    1
    29    35    36    1
    30    36    37    1
    31    37    38    1
    32    20    21    1
    33    21    22    1
    34    28    29   ar
    35    29    30    1
    36    29    24   ar
    37    22    17    1
    38     5     1   ar
    39    38    35    1
    40    12     6   ar
    41    23    31    1
    42    23    32    1
