@<TRIPOS>MOLECULE
*****
 30 34 0 0 0
SMALL
GASTEIGER

@<TRIPOS>ATOM
      1 C         140.7338  145.2602  160.7073 C.3     1  UNL1        0.0292
      2 C         140.1393  144.4870  159.5676 C.3     1  UNL1        0.0666
      3 S         139.9632  143.0017  159.6800 S.3     1  UNL1       -0.0756
      4 C         138.5145  141.0927  162.7332 C.ar    1  UNL1        0.2029
      5 N         137.3604  141.9801  162.3721 N.ar    1  UNL1       -0.1250
      6 N         137.7626  142.8032  161.1844 N.ar    1  UNL1       -0.1220
      7 C         139.1653  142.4245  160.8115 C.ar    1  UNL1        0.1933
      8 N         139.6300  141.3673  161.7688 N.ar    1  UNL1       -0.2860
      9 C         140.9742  140.7016  161.7627 C.3     1  UNL1        0.1341
     10 C         138.8168  137.8566  162.4391 C.3     1  UNL1        0.0556
     11 C         138.6863  138.6166  163.7257 C.ar    1  UNL1        0.1001
     12 N         138.6719  138.0227  165.1031 N.ar    1  UNL1       -0.2085
     13 C         138.5240  139.1431  166.0895 C.ar    1  UNL1        0.2849
     14 O         138.4471  140.4294  165.3218 O.2     1  UNL1       -0.4283
     15 C         138.5474  140.1041  163.8609 C.ar    1  UNL1        0.1964
     16 C         139.8627  146.1460  161.5479 C.3     1  UNL1        0.0694
     17 N         138.8593  145.5408  162.4843 N.3     1  UNL1       -0.2985
     18 H         138.2919  144.8976  161.9322 H       1  UNL1        0.1232
     19 C         139.3231  144.7816  163.6919 C.3     1  UNL1        0.0543
     20 C         138.5993  144.6811  165.0019 C.3     1  UNL1        0.0160
     21 C         139.4210  143.8270  165.9213 C.3     1  UNL1        0.0054
     22 C         140.4385  142.9558  166.5963 C.3     1  UNL1        0.0044
     23 C         140.6527  143.3996  165.1795 C.3     1  UNL1        0.0202
     24 C         140.5922  143.9895  163.8018 C.3     1  UNL1        0.0198
     25 C         141.9666  142.7003  164.9931 C.ar    1  UNL1       -0.0228
     26 C         143.1731  143.4756  164.5539 C.ar    1  UNL1       -0.0043
     27 C         144.4871  142.7763  164.3675 C.ar    1  UNL1       -0.0003
     28 C         144.5943  141.3017  164.6203 C.ar    1  UNL1       -0.0000
     29 C         143.3877  140.5263  165.0596 C.ar    1  UNL1       -0.0003
     30 C         142.0738  141.2256  165.2460 C.ar    1  UNL1       -0.0043
@<TRIPOS>BOND
     1    10    11    1
     2    11    12   ar
     3    12    13   ar
     4    13    14   ar
     5    14    15   ar
     6    15     4    1
     7     4     5   ar
     8     5     6   ar
     9     6     7   ar
    10     7     3    1
    11     3     2    1
    12     2     1    1
    13     1    16    1
    14    16    17    1
    15    17    19    1
    16    19    20    1
    17    20    21    1
    18    21    22    1
    19    22    23    1
    20    23    25    1
    21    25    26   ar
    22    26    27   ar
    23    27    28   ar
    24    28    29   ar
    25    29    30   ar
    26    23    24    1
    27     7     8   ar
    28     8     9    1
    29    15    11   ar
    30     8     4   ar
    31    24    19    1
    32    23    21    1
    33    30    25   ar
    34    17    18    1
@<TRIPOS>MOLECULE
*****
 30 34 0 0 0
SMALL
GASTEIGER

@<TRIPOS>ATOM
      1 C         138.9988  138.1456  162.2336 C.3     1  UNL1        0.0292
      2 C         140.4440  138.1617  162.6351 C.3     1  UNL1        0.0666
      3 S         140.8582  137.6128  163.9683 S.3     1  UNL1       -0.0756
      4 C         141.1136  139.7972  167.1664 C.ar    1  UNL1        0.2029
      5 N         139.6305  139.5940  167.0719 N.ar    1  UNL1       -0.1250
      6 N         139.3543  138.7510  165.8623 N.ar    1  UNL1       -0.1220
      7 C         140.6667  138.4332  165.2093 C.ar    1  UNL1        0.1933
      8 N         141.7541  139.0798  166.0153 N.ar    1  UNL1       -0.2860
      9 C         143.2238  139.0194  165.7218 C.3     1  UNL1        0.1341
     10 C         140.4460  142.8614  168.0689 C.3     1  UNL1        0.0556
     11 C         141.5236  141.9888  168.6409 C.ar    1  UNL1        0.1001
     12 N         142.4836  142.3713  169.7281 N.ar    1  UNL1       -0.2085
     13 C         143.3838  141.1993  169.9853 C.ar    1  UNL1        0.2849
     14 O         142.9802  140.0924  169.0570 O.2     1  UNL1       -0.4283
     15 C         141.8305  140.5803  168.2261 C.ar    1  UNL1        0.1964
     16 C         138.1804  139.3992  162.3275 C.3     1  UNL1        0.0694
     17 N         137.9167  140.0243  163.6652 N.3     1  UNL1       -0.2985
     18 H         138.3865  139.4432  164.3595 H       1  UNL1        0.1232
     19 C         138.3386  141.4395  163.9281 C.3     1  UNL1        0.0543
     20 C         137.4224  142.6112  164.1222 C.3     1  UNL1        0.0160
     21 C         138.2684  143.8274  164.3570 C.3     1  UNL1        0.0054
     22 C         139.3534  144.8429  164.5601 C.3     1  UNL1        0.0044
     23 C         139.7076  143.4074  164.3080 C.3     1  UNL1        0.0202
     24 C         139.7509  141.9316  164.0429 C.3     1  UNL1        0.0198
     25 C         141.1939  143.5993  164.3701 C.ar    1  UNL1       -0.0228
     26 C         142.0626  142.5371  164.9761 C.ar    1  UNL1       -0.0043
     27 C         143.5490  142.7291  165.0382 C.ar    1  UNL1       -0.0003
     28 C         144.1667  143.9832  164.4944 C.ar    1  UNL1       -0.0000
     29 C         143.2979  145.0454  163.8884 C.ar    1  UNL1       -0.0003
     30 C         141.8116  144.8534  163.8263 C.ar    1  UNL1       -0.0043
@<TRIPOS>BOND
     1    10    11    1
     2    11    12   ar
     3    12    13   ar
     4    13    14   ar
     5    14    15   ar
     6    15     4    1
     7     4     5   ar
     8     5     6   ar
     9     6     7   ar
    10     7     3    1
    11     3     2    1
    12     2     1    1
    13     1    16    1
    14    16    17    1
    15    17    19    1
    16    19    20    1
    17    20    21    1
    18    21    22    1
    19    22    23    1
    20    23    25    1
    21    25    26   ar
    22    26    27   ar
    23    27    28   ar
    24    28    29   ar
    25    29    30   ar
    26    23    24    1
    27     7     8   ar
    28     8     9    1
    29    15    11   ar
    30     8     4   ar
    31    24    19    1
    32    23    21    1
    33    30    25   ar
    34    17    18    1
@<TRIPOS>MOLECULE
*****
 30 34 0 0 0
SMALL
GASTEIGER

@<TRIPOS>ATOM
      1 C         143.9105  139.6745  161.7454 C.3     1  UNL1        0.0292
      2 C         143.9735  140.5336  162.9735 C.3     1  UNL1        0.0666
      3 S         144.4140  139.9431  164.2801 S.3     1  UNL1       -0.0756
      4 C         142.3714  141.0830  167.3775 C.ar    1  UNL1        0.2029
      5 N         142.1078  139.6064  167.3839 N.ar    1  UNL1       -0.1250
      6 N         142.8409  138.9996  166.2244 N.ar    1  UNL1       -0.1220
      7 C         143.5575  140.1013  165.5014 C.ar    1  UNL1        0.1933
      8 N         143.2674  141.3889  166.2140 N.ar    1  UNL1       -0.2860
      9 C         143.7828  142.7444  165.8306 C.3     1  UNL1        0.1341
     10 C         144.0097  142.3791  169.8847 C.3     1  UNL1        0.0556
     11 C         142.5866  142.6747  169.5142 C.ar    1  UNL1        0.1001
     12 N         141.6665  143.6179  170.2310 N.ar    1  UNL1       -0.2085
     13 C         140.3449  143.6051  169.5217 C.ar    1  UNL1        0.2849
     14 O         140.4481  142.6540  168.3664 O.2     1  UNL1       -0.4283
     15 C         141.8335  142.0789  168.3617 C.ar    1  UNL1        0.1964
     16 C         143.7641  138.1875  161.8771 C.3     1  UNL1        0.0694
     17 N         142.4053  137.5575  161.7965 N.3     1  UNL1       -0.2985
     18 H         142.5502  136.5486  161.7578 H       1  UNL1        0.1232
     19 C         141.3966  137.8090  162.8779 C.3     1  UNL1        0.0543
     20 C         141.0078  136.8477  163.9617 C.3     1  UNL1        0.0160
     21 C         139.9705  137.5104  164.8190 C.3     1  UNL1        0.0054
     22 C         138.9710  138.4136  165.4785 C.3     1  UNL1        0.0044
     23 C         139.7183  138.8814  164.2650 C.3     1  UNL1        0.0202
     24 C         140.5997  139.0659  163.0653 C.3     1  UNL1        0.0198
     25 C         139.0777  140.2360  164.1988 C.ar    1  UNL1       -0.0228
     26 C         139.5765  141.3453  165.0767 C.ar    1  UNL1       -0.0043
     27 C         138.9359  142.7000  165.0105 C.ar    1  UNL1       -0.0003
     28 C         137.7964  142.9455  164.0663 C.ar    1  UNL1       -0.0000
     29 C         137.2976  141.8361  163.1883 C.ar    1  UNL1       -0.0003
     30 C         137.9382  140.4815  163.2546 C.ar    1  UNL1       -0.0043
@<TRIPOS>BOND
     1    10    11    1
     2    11    12   ar
     3    12    13   ar
     4    13    14   ar
     5    14    15   ar
     6    15     4    1
     7     4     5   ar
     8     5     6   ar
     9     6     7   ar
    10     7     3    1
    11     3     2    1
    12     2     1    1
    13     1    16    1
    14    16    17    1
    15    17    19    1
    16    19    20    1
    17    20    21    1
    18    21    22    1
    19    22    23    1
    20    23    25    1
    21    25    26   ar
    22    26    27   ar
    23    27    28   ar
    24    28    29   ar
    25    29    30   ar
    26    23    24    1
    27     7     8   ar
    28     8     9    1
    29    15    11   ar
    30     8     4   ar
    31    24    19    1
    32    23    21    1
    33    30    25   ar
    34    17    18    1
@<TRIPOS>MOLECULE
*****
 30 34 0 0 0
SMALL
GASTEIGER

@<TRIPOS>ATOM
      1 C         142.4799  138.3214  161.3161 C.3     1  UNL1        0.0292
      2 C         141.4377  138.5233  162.3759 C.3     1  UNL1        0.0666
      3 S         141.4397  137.6616  163.6036 S.3     1  UNL1       -0.0756
      4 C         141.7028  139.3923  167.0677 C.ar    1  UNL1        0.2029
      5 N         143.1096  138.9074  166.8784 N.ar    1  UNL1       -0.1250
      6 N         143.1822  138.2001  165.5577 N.ar    1  UNL1       -0.1220
      7 C         141.8204  138.2478  164.9308 C.ar    1  UNL1        0.1933
      8 N         140.9060  138.9846  165.8641 N.ar    1  UNL1       -0.2860
      9 C         139.4505  139.2646  165.6341 C.3     1  UNL1        0.1341
     10 C         143.0230  142.0891  168.3460 C.3     1  UNL1        0.0556
     11 C         141.7908  141.3912  168.8403 C.ar    1  UNL1        0.1001
     12 N         140.9489  141.8102  170.0090 N.ar    1  UNL1       -0.2085
     13 C         139.8219  140.8296  170.1437 C.ar    1  UNL1        0.2849
     14 O         139.9671  139.8045  169.0583 O.2     1  UNL1       -0.4283
     15 C         141.1839  140.1515  168.2527 C.ar    1  UNL1        0.1964
     16 C         143.7512  139.1167  161.3531 C.3     1  UNL1        0.0694
     17 N         144.4817  139.3031  162.6499 N.3     1  UNL1       -0.2985
     18 H         145.4638  139.0972  162.4668 H       1  UNL1        0.1232
     19 C         144.4405  140.6291  163.3500 C.3     1  UNL1        0.0543
     20 C         145.6222  141.3763  163.8934 C.3     1  UNL1        0.0160
     21 C         145.1225  142.6496  164.5089 C.3     1  UNL1        0.0054
     22 C         144.3415  143.8178  165.0337 C.3     1  UNL1        0.0044
     23 C         143.6319  142.6894  164.3459 C.3     1  UNL1        0.0202
     24 C         143.2104  141.4407  163.6297 C.3     1  UNL1        0.0198
     25 C         142.2534  143.2651  164.4818 C.ar    1  UNL1       -0.0228
     26 C         141.2464  142.5978  165.3710 C.ar    1  UNL1       -0.0043
     27 C         139.8678  143.1735  165.5069 C.ar    1  UNL1       -0.0003
     28 C         139.4964  144.4164  164.7536 C.ar    1  UNL1       -0.0000
     29 C         140.5036  145.0836  163.8644 C.ar    1  UNL1       -0.0003
     30 C         141.8820  144.5079  163.7285 C.ar    1  UNL1       -0.0043
@<TRIPOS>BOND
     1    10    11    1
     2    11    12   ar
     3    12    13   ar
     4    13    14   ar
     5    14    15   ar
     6    15     4    1
     7     4     5   ar
     8     5     6   ar
     9     6     7   ar
    10     7     3    1
    11     3     2    1
    12     2     1    1
    13     1    16    1
    14    16    17    1
    15    17    19    1
    16    19    20    1
    17    20    21    1
    18    21    22    1
    19    22    23    1
    20    23    25    1
    21    25    26   ar
    22    26    27   ar
    23    27    28   ar
    24    28    29   ar
    25    29    30   ar
    26    23    24    1
    27     7     8   ar
    28     8     9    1
    29    15    11   ar
    30     8     4   ar
    31    24    19    1
    32    23    21    1
    33    30    25   ar
    34    17    18    1
@<TRIPOS>MOLECULE
*****
 30 34 0 0 0
SMALL
GASTEIGER

@<TRIPOS>ATOM
      1 C         138.9408  138.5111  163.7183 C.3     1  UNL1        0.0292
      2 C         140.2680  137.8744  164.0069 C.3     1  UNL1        0.0666
      3 S         141.4635  138.7319  164.2990 S.3     1  UNL1       -0.0756
      4 C         142.0194  139.5556  168.0510 C.ar    1  UNL1        0.2029
      5 N         143.2822  138.8138  167.7270 N.ar    1  UNL1       -0.1250
      6 N         143.2276  138.4149  166.2820 N.ar    1  UNL1       -0.1220
      7 C         141.9311  138.9103  165.7130 C.ar    1  UNL1        0.1933
      8 N         141.1844  139.6152  166.8064 N.ar    1  UNL1       -0.2860
      9 C         139.8389  140.2657  166.6776 C.3     1  UNL1        0.1341
     10 C         143.4882  142.0777  169.5109 C.3     1  UNL1        0.0556
     11 C         142.3306  141.2952  170.0566 C.ar    1  UNL1        0.1001
     12 N         141.6449  141.5346  171.3690 N.ar    1  UNL1       -0.2085
     13 C         140.5459  140.5233  171.5091 C.ar    1  UNL1        0.2849
     14 O         140.5525  139.6588  170.2832 O.2     1  UNL1       -0.4283
     15 C         141.6555  140.1359  169.3855 C.ar    1  UNL1        0.1964
     16 C         138.7785  139.3953  162.5176 C.3     1  UNL1        0.0694
     17 N         137.8594  140.5793  162.5768 N.3     1  UNL1       -0.2985
     18 H         136.9843  140.2525  162.9864 H       1  UNL1        0.1232
     19 C         138.2639  141.8053  163.3406 C.3     1  UNL1        0.0543
     20 C         137.3347  142.7691  164.0171 C.3     1  UNL1        0.0160
     21 C         138.1650  143.8422  164.6566 C.3     1  UNL1        0.0054
     22 C         139.2365  144.7536  165.1775 C.3     1  UNL1        0.0044
     23 C         139.6074  143.5416  164.3754 C.3     1  UNL1        0.0202
     24 C         139.6685  142.2827  163.5621 C.3     1  UNL1        0.0198
     25 C         141.0896  143.7655  164.4292 C.ar    1  UNL1       -0.0228
     26 C         141.9677  142.8001  165.1688 C.ar    1  UNL1       -0.0043
     27 C         143.4499  143.0241  165.2226 C.ar    1  UNL1       -0.0003
     28 C         144.0541  144.2135  164.5368 C.ar    1  UNL1       -0.0000
     29 C         143.1760  145.1790  163.7972 C.ar    1  UNL1       -0.0003
     30 C         141.6938  144.9550  163.7434 C.ar    1  UNL1       -0.0043
@<TRIPOS>BOND
     1    10    11    1
     2    11    12   ar
     3    12    13   ar
     4    13    14   ar
     5    14    15   ar
     6    15     4    1
     7     4     5   ar
     8     5     6   ar
     9     6     7   ar
    10     7     3    1
    11     3     2    1
    12     2     1    1
    13     1    16    1
    14    16    17    1
    15    17    19    1
    16    19    20    1
    17    20    21    1
    18    21    22    1
    19    22    23    1
    20    23    25    1
    21    25    26   ar
    22    26    27   ar
    23    27    28   ar
    24    28    29   ar
    25    29    30   ar
    26    23    24    1
    27     7     8   ar
    28     8     9    1
    29    15    11   ar
    30     8     4   ar
    31    24    19    1
    32    23    21    1
    33    30    25   ar
    34    17    18    1
@<TRIPOS>MOLECULE
*****
 30 34 0 0 0
SMALL
GASTEIGER

@<TRIPOS>ATOM
      1 C         138.0351  140.7400  161.1864 C.3     1  UNL1        0.0292
      2 C         138.1998  139.2966  160.8129 C.3     1  UNL1        0.0666
      3 S         138.1521  138.2372  161.8738 S.3     1  UNL1       -0.0756
      4 C         140.6431  138.5279  164.8361 C.ar    1  UNL1        0.2029
      5 N         141.2752  137.4304  164.0325 N.ar    1  UNL1       -0.1250
      6 N         140.4191  137.1879  162.8250 N.ar    1  UNL1       -0.1220
      7 C         139.2578  138.1356  162.8823 C.ar    1  UNL1        0.1933
      8 N         139.3962  138.9637  164.1253 N.ar    1  UNL1       -0.2860
      9 C         138.4533  140.0390  164.5780 C.3     1  UNL1        0.1341
     10 C         143.7755  138.6547  165.7427 C.3     1  UNL1        0.0556
     11 C         142.6058  139.1490  166.5412 C.ar    1  UNL1        0.1001
     12 N         142.6705  139.7885  167.8965 N.ar    1  UNL1       -0.2085
     13 C         141.2708  140.1253  168.3175 C.ar    1  UNL1        0.2849
     14 O         140.3409  139.6941  167.2223 O.2     1  UNL1       -0.4283
     15 C         141.1660  139.0907  166.1244 C.ar    1  UNL1        0.1964
     16 C         138.2960  141.8121  160.1703 C.3     1  UNL1        0.0694
     17 N         138.4281  143.2416  160.6052 N.3     1  UNL1       -0.2985
     18 H         137.5447  143.7001  160.3819 H       1  UNL1        0.1232
     19 C         138.7335  143.5645  162.0378 C.3     1  UNL1        0.0543
     20 C         137.7333  143.9483  163.0877 C.3     1  UNL1        0.0160
     21 C         138.4744  144.1813  164.3709 C.3     1  UNL1        0.0054
     22 C         139.4681  144.3410  165.4831 C.3     1  UNL1        0.0044
     23 C         139.9327  143.9414  164.1140 C.3     1  UNL1        0.0202
     24 C         140.0928  143.5602  162.6721 C.3     1  UNL1        0.0198
     25 C         141.3891  143.8537  164.4621 C.ar    1  UNL1       -0.0228
     26 C         142.3569  144.8499  163.8956 C.ar    1  UNL1       -0.0043
     27 C         143.8134  144.7622  164.2437 C.ar    1  UNL1       -0.0003
     28 C         144.3020  143.6782  165.1581 C.ar    1  UNL1       -0.0000
     29 C         143.3341  142.6819  165.7245 C.ar    1  UNL1       -0.0003
     30 C         141.8777  142.7697  165.3765 C.ar    1  UNL1       -0.0043
@<TRIPOS>BOND
     1    10    11    1
     2    11    12   ar
     3    12    13   ar
     4    13    14   ar
     5    14    15   ar
     6    15     4    1
     7     4     5   ar
     8     5     6   ar
     9     6     7   ar
    10     7     3    1
    11     3     2    1
    12     2     1    1
    13     1    16    1
    14    16    17    1
    15    17    19    1
    16    19    20    1
    17    20    21    1
    18    21    22    1
    19    22    23    1
    20    23    25    1
    21    25    26   ar
    22    26    27   ar
    23    27    28   ar
    24    28    29   ar
    25    29    30   ar
    26    23    24    1
    27     7     8   ar
    28     8     9    1
    29    15    11   ar
    30     8     4   ar
    31    24    19    1
    32    23    21    1
    33    30    25   ar
    34    17    18    1
@<TRIPOS>MOLECULE
*****
 30 34 0 0 0
SMALL
GASTEIGER

@<TRIPOS>ATOM
      1 C         140.0752  138.4495  163.5891 C.3     1  UNL1        0.0292
      2 C         139.0476  137.8372  162.6841 C.3     1  UNL1        0.0666
      3 S         138.2326  138.7097  161.7761 S.3     1  UNL1       -0.0756
      4 C         138.6041  142.5604  162.0908 C.ar    1  UNL1        0.2029
      5 N         137.3219  142.3312  162.8347 N.ar    1  UNL1       -0.1250
      6 N         137.0267  140.8608  162.8073 N.ar    1  UNL1       -0.1220
      7 C         138.1264  140.1813  162.0466 C.ar    1  UNL1        0.1933
      8 N         139.1014  141.2317  161.6037 N.ar    1  UNL1       -0.2860
      9 C         140.3536  140.9950  160.8127 C.3     1  UNL1        0.1341
     10 C         139.8501  144.4863  164.4122 C.3     1  UNL1        0.0556
     11 C         139.8446  144.7709  162.9394 C.ar    1  UNL1        0.1001
     12 N         140.4109  145.9908  162.2750 N.ar    1  UNL1       -0.2085
     13 C         140.1882  145.8595  160.7975 C.ar    1  UNL1        0.2849
     14 O         139.4842  144.5585  160.5486 O.2     1  UNL1       -0.4283
     15 C         139.2719  143.8857  161.8724 C.ar    1  UNL1        0.1964
     16 C         140.7004  137.6285  164.6777 C.3     1  UNL1        0.0694
     17 N         142.1160  137.8928  165.0976 N.3     1  UNL1       -0.2985
     18 H         142.7164  137.4999  164.3726 H       1  UNL1        0.1232
     19 C         142.5796  139.3007  165.3277 C.3     1  UNL1        0.0543
     20 C         143.5137  140.0765  164.4470 C.3     1  UNL1        0.0160
     21 C         143.7019  141.4352  165.0539 C.3     1  UNL1        0.0054
     22 C         143.6945  142.6865  165.8811 C.3     1  UNL1        0.0044
     23 C         142.8841  141.4993  166.3097 C.3     1  UNL1        0.0202
     24 C         142.1905  140.1801  166.4789 C.3     1  UNL1        0.0198
     25 C         142.3256  142.1304  167.5506 C.ar    1  UNL1       -0.0228
     26 C         143.1942  142.3007  168.7615 C.ar    1  UNL1       -0.0043
     27 C         142.6357  142.9318  170.0025 C.ar    1  UNL1       -0.0003
     28 C         141.2086  143.3926  170.0324 C.ar    1  UNL1       -0.0000
     29 C         140.3399  143.2223  168.8213 C.ar    1  UNL1       -0.0003
     30 C         140.8984  142.5912  167.5805 C.ar    1  UNL1       -0.0043
@<TRIPOS>BOND
     1    10    11    1
     2    11    12   ar
     3    12    13   ar
     4    13    14   ar
     5    14    15   ar
     6    15     4    1
     7     4     5   ar
     8     5     6   ar
     9     6     7   ar
    10     7     3    1
    11     3     2    1
    12     2     1    1
    13     1    16    1
    14    16    17    1
    15    17    19    1
    16    19    20    1
    17    20    21    1
    18    21    22    1
    19    22    23    1
    20    23    25    1
    21    25    26   ar
    22    26    27   ar
    23    27    28   ar
    24    28    29   ar
    25    29    30   ar
    26    23    24    1
    27     7     8   ar
    28     8     9    1
    29    15    11   ar
    30     8     4   ar
    31    24    19    1
    32    23    21    1
    33    30    25   ar
    34    17    18    1
@<TRIPOS>MOLECULE
*****
 30 34 0 0 0
SMALL
GASTEIGER

@<TRIPOS>ATOM
      1 C         140.2190  144.1277  161.9584 C.3     1  UNL1        0.0292
      2 C         139.2090  145.0767  162.5326 C.3     1  UNL1        0.0666
      3 S         138.3498  144.6500  163.6857 S.3     1  UNL1       -0.0756
      4 C         138.9246  141.1908  165.3494 C.ar    1  UNL1        0.2029
      5 N         139.7621  142.0758  166.2242 N.ar    1  UNL1       -0.1250
      6 N         139.6486  143.4794  165.7074 N.ar    1  UNL1       -0.1220
      7 C         138.7411  143.4618  164.5133 C.ar    1  UNL1        0.1933
      8 N         138.2936  142.0473  164.2920 N.ar    1  UNL1       -0.2860
      9 C         137.3762  141.5727  163.2043 C.3     1  UNL1        0.1341
     10 C         140.5203  138.8846  163.6806 C.3     1  UNL1        0.0556
     11 C         139.4825  138.6491  164.7376 C.ar    1  UNL1        0.1001
     12 N         138.9958  137.3124  165.2133 N.ar    1  UNL1       -0.2085
     13 C         137.9616  137.5462  166.2743 C.ar    1  UNL1        0.2849
     14 O         137.8090  139.0275  166.4545 O.2     1  UNL1       -0.4283
     15 C         138.7490  139.7092  165.5047 C.ar    1  UNL1        0.1964
     16 C         141.1616  144.5929  160.8884 C.3     1  UNL1        0.0694
     17 N         142.6428  144.5404  161.1190 N.3     1  UNL1       -0.2985
     18 H         143.0153  145.4508  160.8494 H       1  UNL1        0.1232
     19 C         143.1786  144.2415  162.4878 C.3     1  UNL1        0.0543
     20 C         143.6585  145.2522  163.4869 C.3     1  UNL1        0.0160
     21 C         144.1051  144.5148  164.7144 C.3     1  UNL1        0.0054
     22 C         144.4671  143.5227  165.7796 C.3     1  UNL1        0.0044
     23 C         143.9011  143.0483  164.4740 C.3     1  UNL1        0.0202
     24 C         143.3286  142.8794  163.0979 C.3     1  UNL1        0.0198
     25 C         143.9328  141.5870  164.8111 C.ar    1  UNL1       -0.0228
     26 C         143.0287  141.0436  165.8776 C.ar    1  UNL1       -0.0043
     27 C         143.0603  139.5823  166.2148 C.ar    1  UNL1       -0.0003
     28 C         143.9960  138.6644  165.4854 C.ar    1  UNL1       -0.0000
     29 C         144.9001  139.2079  164.4189 C.ar    1  UNL1       -0.0003
     30 C         144.8685  140.6691  164.0818 C.ar    1  UNL1       -0.0043
@<TRIPOS>BOND
     1    10    11    1
     2    11    12   ar
     3    12    13   ar
     4    13    14   ar
     5    14    15   ar
     6    15     4    1
     7     4     5   ar
     8     5     6   ar
     9     6     7   ar
    10     7     3    1
    11     3     2    1
    12     2     1    1
    13     1    16    1
    14    16    17    1
    15    17    19    1
    16    19    20    1
    17    20    21    1
    18    21    22    1
    19    22    23    1
    20    23    25    1
    21    25    26   ar
    22    26    27   ar
    23    27    28   ar
    24    28    29   ar
    25    29    30   ar
    26    23    24    1
    27     7     8   ar
    28     8     9    1
    29    15    11   ar
    30     8     4   ar
    31    24    19    1
    32    23    21    1
    33    30    25   ar
    34    17    18    1
@<TRIPOS>MOLECULE
*****
 30 34 0 0 0
SMALL
GASTEIGER

@<TRIPOS>ATOM
      1 C         143.3928  138.4708  162.6261 C.3     1  UNL1        0.0292
      2 C         141.9054  138.6551  162.6873 C.3     1  UNL1        0.0666
      3 S         141.0841  137.8206  163.6249 S.3     1  UNL1       -0.0756
      4 C         139.7872  139.5920  166.8256 C.ar    1  UNL1        0.2029
      5 N         138.5059  139.3697  166.0780 N.ar    1  UNL1       -0.1250
      6 N         138.8358  138.6791  164.7880 N.ar    1  UNL1       -0.1220
      7 C         140.3210  138.4745  164.7384 C.ar    1  UNL1        0.1933
      8 N         140.9090  139.0388  165.9977 N.ar    1  UNL1       -0.2860
      9 C         142.3634  139.0482  166.3646 C.3     1  UNL1        0.1341
     10 C         140.5545  142.7194  167.3553 C.3     1  UNL1        0.0556
     11 C         140.2756  141.6893  168.4093 C.ar    1  UNL1        0.1001
     12 N         140.3004  141.9158  169.8920 N.ar    1  UNL1       -0.2085
     13 C         139.9630  140.6183  170.5648 C.ar    1  UNL1        0.2849
     14 O         139.7297  139.5899  169.4981 O.2     1  UNL1       -0.4283
     15 C         139.9229  140.2518  168.1659 C.ar    1  UNL1        0.1964
     16 C         144.3046  139.6026  162.9970 C.3     1  UNL1        0.0694
     17 N         144.3987  140.8105  162.1127 N.3     1  UNL1       -0.2985
     18 H         143.9575  140.5622  161.2272 H       1  UNL1        0.1232
     19 C         143.7902  142.1098  162.5504 C.3     1  UNL1        0.0543
     20 C         144.4865  143.4375  162.5990 C.3     1  UNL1        0.0160
     21 C         143.5051  144.4577  163.0951 C.3     1  UNL1        0.0054
     22 C         142.3266  145.2343  163.6031 C.3     1  UNL1        0.0044
     23 C         142.2022  143.7605  163.3530 C.3     1  UNL1        0.0202
     24 C         142.3784  142.3094  163.0164 C.3     1  UNL1        0.0198
     25 C         140.7645  143.6521  163.7667 C.ar    1  UNL1       -0.0228
     26 C         140.0459  142.3411  163.6448 C.ar    1  UNL1       -0.0043
     27 C         138.6081  142.2326  164.0585 C.ar    1  UNL1       -0.0003
     28 C         137.8890  143.4352  164.5941 C.ar    1  UNL1       -0.0000
     29 C         138.6077  144.7462  164.7160 C.ar    1  UNL1       -0.0003
     30 C         140.0454  144.8546  164.3023 C.ar    1  UNL1       -0.0043
@<TRIPOS>BOND
     1    10    11    1
     2    11    12   ar
     3    12    13   ar
     4    13    14   ar
     5    14    15   ar
     6    15     4    1
     7     4     5   ar
     8     5     6   ar
     9     6     7   ar
    10     7     3    1
    11     3     2    1
    12     2     1    1
    13     1    16    1
    14    16    17    1
    15    17    19    1
    16    19    20    1
    17    20    21    1
    18    21    22    1
    19    22    23    1
    20    23    25    1
    21    25    26   ar
    22    26    27   ar
    23    27    28   ar
    24    28    29   ar
    25    29    30   ar
    26    23    24    1
    27     7     8   ar
    28     8     9    1
    29    15    11   ar
    30     8     4   ar
    31    24    19    1
    32    23    21    1
    33    30    25   ar
    34    17    18    1
