@<TRIPOS>MOLECULE
*****
 39 44 0 0 0
SMALL
GASTEIGER

@<TRIPOS>ATOM
      1 C         137.8773  142.9706  163.2909 C.3     1  UNL1        0.0932
      2 C         137.6871  141.7743  164.1756 C.3     1  UNL1        0.0286
      3 C         137.6854  140.3962  163.5833 C.3     1  UNL1        0.0193
      4 C         137.8738  140.2144  162.1063 C.3     1  UNL1        0.0700
      5 C         138.0640  141.4106  161.2216 C.3     1  UNL1        0.0193
      6 C         138.0658  142.7888  161.8139 C.3     1  UNL1        0.0286
      7 C         137.8821  140.9892  162.3849 C.3     1  UNL1        0.1562
      8 O         137.8837  142.2353  162.9205 O.3     1  UNL1       -0.3572
      9 N         137.8721  138.8363  161.5140 N.3     1  UNL1       -0.2926
     10 H         137.2984  138.8786  160.6717 H       1  UNL1        0.1236
     11 C         139.1663  138.1858  161.1243 C.3     1  UNL1        0.1152
     12 C         140.3683  138.3159  162.0122 C.ar    1  UNL1        0.0765
     13 C         140.5114  137.4314  163.2152 C.ar    1  UNL1        0.0193
     14 C         141.7134  137.5615  164.1030 C.ar    1  UNL1        0.0411
     15 C         142.7723  138.5761  163.7879 C.ar    1  UNL1        0.1708
     16 C         142.6292  139.4606  162.5849 C.ar    1  UNL1        0.1682
     17 N         141.4272  139.3304  161.6970 N.ar    1  UNL1       -0.2304
     18 N         143.6881  140.4752  162.2697 N.am    1  UNL1       -0.2639
     19 C         144.8901  140.6053  163.1576 C.2     1  UNL1        0.2718
     20 O         145.9490  141.6199  162.8424 O.2     1  UNL1       -0.2707
     21 C         145.0332  139.7208  164.3606 C.3     1  UNL1        0.2898
     22 O         143.9743  138.7062  164.6757 O.3     1  UNL1       -0.4628
     23 H         143.5941  141.0557  161.4801 H       1  UNL1        0.1565
     24 C         137.8791  144.3487  163.8831 C.3     1  UNL1        0.0319
     25 C         138.9634  144.7536  164.8373 C.3     1  UNL1        0.0304
     26 C         140.5731  141.5230  167.5246 C.ar    1  UNL1        0.2348
     27 N         140.0365  142.5998  166.6288 N.ar    1  UNL1       -0.2099
     28 C         140.8977  143.1677  165.5397 C.ar    1  UNL1        0.0980
     29 C         140.3611  144.2446  164.6439 C.ar    1  UNL1       -0.0013
     30 C         141.2222  144.8124  163.5549 C.ar    1  UNL1        0.0179
     31 C         142.6198  144.3034  163.3616 C.ar    1  UNL1        0.0986
     32 N         143.1564  143.2265  164.2574 N.ar    1  UNL1       -0.2423
     33 C         142.2953  142.6586  165.3464 C.ar    1  UNL1        0.0995
     34 C         142.8319  141.5818  166.2422 C.ar    1  UNL1        0.0356
     35 C         141.9709  141.0139  167.3312 C.ar    1  UNL1        0.1230
     36 C         139.7468  141.5562  169.9875 C.3     1  UNL1        0.2543
     37 O         139.7121  140.9551  168.6136 O.3     1  UNL1       -0.4557
     38 C         142.5074  139.9370  168.2270 C.1     1  UNL1        0.1052
     39 N         143.0440  138.8602  169.1228 N.1     1  UNL1       -0.1907
@<TRIPOS>BOND
     1    36    37    1
     2    37    26    1
     3    26    27   ar
     4    27    28   ar
     5    28    29   ar
     6    29    25    1
     7    25    24    1
     8    24     1    1
     9     1     2    1
    10     2     3    1
    11     3     4    1
    12     4     9    1
    13     9    11    1
    14    11    12    1
    15    12    13   ar
    16    13    14   ar
    17    14    15   ar
    18    15    16   ar
    19    16    17   ar
    20    16    18    1
    21    18    19   am
    22    19    20    2
    23    19    21    1
    24    21    22    1
    25     4     5    1
    26     5     6    1
    27     4     7    1
    28     7     8    1
    29    29    30   ar
    30    30    31   ar
    31    31    32   ar
    32    32    33   ar
    33    33    34   ar
    34    34    35   ar
    35    35    38    1
    36    38    39    3
    37    35    26   ar
    38    33    28   ar
    39     6     1    1
    40     8     1    1
    41    17    12   ar
    42    22    15    1
    43     9    10    1
    44    18    23    1
@<TRIPOS>MOLECULE
*****
 39 44 0 0 0
SMALL
GASTEIGER

@<TRIPOS>ATOM
      1 C         141.8523  138.0214  164.2065 C.3     1  UNL1        0.0932
      2 C         142.8132  138.4448  165.2777 C.3     1  UNL1        0.0286
      3 C         144.0508  139.2107  164.9150 C.3     1  UNL1        0.0193
      4 C         144.3276  139.5533  163.4811 C.3     1  UNL1        0.0700
      5 C         143.3667  139.1299  162.4099 C.3     1  UNL1        0.0193
      6 C         142.1290  138.3639  162.7726 C.3     1  UNL1        0.0286
      7 C         143.6362  139.1320  163.6311 C.3     1  UNL1        0.1562
      8 O         142.5171  138.4394  163.9591 O.3     1  UNL1       -0.3572
      9 N         145.5652  140.3192  163.1183 N.3     1  UNL1       -0.2926
     10 H         145.6955  140.2089  162.1127 H       1  UNL1        0.1236
     11 C         145.6495  141.7887  163.4074 C.3     1  UNL1        0.1152
     12 C         144.4307  142.6517  163.2675 C.ar    1  UNL1        0.0765
     13 C         143.6956  143.1153  164.4900 C.ar    1  UNL1        0.0193
     14 C         142.4767  143.9783  164.3501 C.ar    1  UNL1        0.0411
     15 C         141.9930  144.3778  162.9876 C.ar    1  UNL1        0.1708
     16 C         142.7281  143.9143  161.7650 C.ar    1  UNL1        0.1682
     17 N         143.9470  143.0512  161.9050 N.ar    1  UNL1       -0.2304
     18 N         142.2444  144.3137  160.4025 N.am    1  UNL1       -0.2639
     19 C         141.0256  145.1768  160.2625 C.2     1  UNL1        0.2718
     20 O         140.5419  145.5763  158.9000 O.2     1  UNL1       -0.2707
     21 C         140.2904  145.6404  161.4851 C.3     1  UNL1        0.2898
     22 O         140.7742  145.2409  162.8476 O.3     1  UNL1       -0.4628
     23 H         142.7269  144.0094  159.6001 H       1  UNL1        0.1565
     24 C         140.6146  137.2555  164.5692 C.3     1  UNL1        0.0319
     25 C         139.3418  137.9880  164.8746 C.3     1  UNL1        0.0304
     26 C         140.5601  140.6656  168.2800 C.ar    1  UNL1        0.2348
     27 N         140.1540  139.7730  167.1449 N.ar    1  UNL1       -0.2099
     28 C         139.6839  140.3709  165.8519 C.ar    1  UNL1        0.0980
     29 C         139.2778  139.4783  164.7168 C.ar    1  UNL1       -0.0013
     30 C         138.8077  140.0761  163.4239 C.ar    1  UNL1        0.0179
     31 C         138.7437  141.5664  163.2661 C.ar    1  UNL1        0.0986
     32 N         139.1498  142.4589  164.4012 N.ar    1  UNL1       -0.2423
     33 C         139.6199  141.8611  165.6941 C.ar    1  UNL1        0.0995
     34 C         140.0260  142.7537  166.8292 C.ar    1  UNL1        0.0356
     35 C         140.4961  142.1559  168.1221 C.ar    1  UNL1        0.1230
     36 C         142.4111  139.4910  169.6743 C.3     1  UNL1        0.2543
     37 O         141.0301  140.0678  169.5729 O.3     1  UNL1       -0.4557
     38 C         140.9021  143.0484  169.2572 C.1     1  UNL1        0.1052
     39 N         141.3082  143.9410  170.3923 N.1     1  UNL1       -0.1907
@<TRIPOS>BOND
     1    36    37    1
     2    37    26    1
     3    26    27   ar
     4    27    28   ar
     5    28    29   ar
     6    29    25    1
     7    25    24    1
     8    24     1    1
     9     1     2    1
    10     2     3    1
    11     3     4    1
    12     4     9    1
    13     9    11    1
    14    11    12    1
    15    12    13   ar
    16    13    14   ar
    17    14    15   ar
    18    15    16   ar
    19    16    17   ar
    20    16    18    1
    21    18    19   am
    22    19    20    2
    23    19    21    1
    24    21    22    1
    25     4     5    1
    26     5     6    1
    27     4     7    1
    28     7     8    1
    29    29    30   ar
    30    30    31   ar
    31    31    32   ar
    32    32    33   ar
    33    33    34   ar
    34    34    35   ar
    35    35    38    1
    36    38    39    3
    37    35    26   ar
    38    33    28   ar
    39     6     1    1
    40     8     1    1
    41    17    12   ar
    42    22    15    1
    43     9    10    1
    44    18    23    1
@<TRIPOS>MOLECULE
*****
 39 44 0 0 0
SMALL
GASTEIGER

@<TRIPOS>ATOM
      1 C         140.0341  137.8953  164.3033 C.3     1  UNL1        0.0932
      2 C         139.7320  137.8458  162.8348 C.3     1  UNL1        0.0286
      3 C         140.8521  137.8714  161.8375 C.3     1  UNL1        0.0193
      4 C         142.2742  137.9465  162.3085 C.3     1  UNL1        0.0700
      5 C         142.5763  137.9960  163.7769 C.3     1  UNL1        0.0193
      6 C         141.4562  137.9704  164.7744 C.3     1  UNL1        0.0286
      7 C         141.6941  137.9349  162.8927 C.3     1  UNL1        0.1562
      8 O         140.6812  137.9117  163.7945 O.3     1  UNL1       -0.3572
      9 N         143.3943  137.9721  161.3112 N.3     1  UNL1       -0.2926
     10 H         143.2195  137.2132  160.6525 H       1  UNL1        0.1236
     11 C         143.6434  139.2055  160.4946 C.3     1  UNL1        0.1152
     12 C         143.4566  140.5615  161.1080 C.ar    1  UNL1        0.0765
     13 C         142.5437  141.5591  160.4588 C.ar    1  UNL1        0.0193
     14 C         142.3569  142.9151  161.0722 C.ar    1  UNL1        0.0411
     15 C         143.0830  143.2736  162.3349 C.ar    1  UNL1        0.1708
     16 C         143.9959  142.2760  162.9841 C.ar    1  UNL1        0.1682
     17 N         144.1827  140.9199  162.3707 N.ar    1  UNL1       -0.2304
     18 N         144.7219  142.6344  164.2468 N.am    1  UNL1       -0.2639
     19 C         144.5351  143.9905  164.8603 C.2     1  UNL1        0.2718
     20 O         145.2612  144.3489  166.1229 O.2     1  UNL1       -0.2707
     21 C         143.6222  144.9880  164.2111 C.3     1  UNL1        0.2898
     22 O         142.8961  144.6296  162.9483 O.3     1  UNL1       -0.4628
     23 H         145.3211  141.9797  164.6729 H       1  UNL1        0.1565
     24 C         138.9140  137.8697  165.3006 C.3     1  UNL1        0.0319
     25 C         138.1963  139.1382  165.6551 C.3     1  UNL1        0.0304
     26 C         138.4199  142.7378  162.9639 C.ar    1  UNL1        0.2348
     27 N         138.3454  141.5379  163.8610 N.ar    1  UNL1       -0.2099
     28 C         139.0501  141.5465  165.1851 C.ar    1  UNL1        0.0980
     29 C         138.9756  140.3467  166.0822 C.ar    1  UNL1       -0.0013
     30 C         139.6803  140.3552  167.4063 C.ar    1  UNL1        0.0179
     31 C         140.4596  141.5636  167.8333 C.ar    1  UNL1        0.0986
     32 N         140.5341  142.7635  166.9362 N.ar    1  UNL1       -0.2423
     33 C         139.8294  142.7550  165.6121 C.ar    1  UNL1        0.0995
     34 C         139.9040  143.9548  164.7151 C.ar    1  UNL1        0.0356
     35 C         139.1992  143.9463  163.3910 C.ar    1  UNL1        0.1230
     36 C         138.4204  142.2192  160.4181 C.3     1  UNL1        0.2543
     37 O         137.7152  142.7293  161.6398 O.3     1  UNL1       -0.4557
     38 C         139.2738  145.1462  162.4939 C.1     1  UNL1        0.1052
     39 N         139.3483  146.3460  161.5968 N.1     1  UNL1       -0.1907
@<TRIPOS>BOND
     1    36    37    1
     2    37    26    1
     3    26    27   ar
     4    27    28   ar
     5    28    29   ar
     6    29    25    1
     7    25    24    1
     8    24     1    1
     9     1     2    1
    10     2     3    1
    11     3     4    1
    12     4     9    1
    13     9    11    1
    14    11    12    1
    15    12    13   ar
    16    13    14   ar
    17    14    15   ar
    18    15    16   ar
    19    16    17   ar
    20    16    18    1
    21    18    19   am
    22    19    20    2
    23    19    21    1
    24    21    22    1
    25     4     5    1
    26     5     6    1
    27     4     7    1
    28     7     8    1
    29    29    30   ar
    30    30    31   ar
    31    31    32   ar
    32    32    33   ar
    33    33    34   ar
    34    34    35   ar
    35    35    38    1
    36    38    39    3
    37    35    26   ar
    38    33    28   ar
    39     6     1    1
    40     8     1    1
    41    17    12   ar
    42    22    15    1
    43     9    10    1
    44    18    23    1
@<TRIPOS>MOLECULE
*****
 39 44 0 0 0
SMALL
GASTEIGER

@<TRIPOS>ATOM
      1 C         142.1688  137.9488  163.6219 C.3     1  UNL1        0.0932
      2 C         142.5842  138.5035  164.9523 C.3     1  UNL1        0.0286
      3 C         143.7334  139.4636  165.0389 C.3     1  UNL1        0.0193
      4 C         144.4672  139.8691  163.7951 C.3     1  UNL1        0.0700
      5 C         144.0519  139.3145  162.4647 C.3     1  UNL1        0.0193
      6 C         142.9027  138.3543  162.3781 C.3     1  UNL1        0.0286
      7 C         143.8438  139.3401  163.6976 C.3     1  UNL1        0.1562
      8 O         142.8046  138.4720  163.6194 O.3     1  UNL1       -0.3572
      9 N         145.6164  140.8292  163.8816 N.3     1  UNL1       -0.2926
     10 H         146.4434  140.3287  163.5560 H       1  UNL1        0.1236
     11 C         145.5695  142.1251  163.1275 C.3     1  UNL1        0.1152
     12 C         144.3076  142.9356  163.1070 C.ar    1  UNL1        0.0765
     13 C         143.6478  143.3290  164.3954 C.ar    1  UNL1        0.0193
     14 C         142.3859  144.1396  164.3748 C.ar    1  UNL1        0.0411
     15 C         141.7837  144.5568  163.0658 C.ar    1  UNL1        0.1708
     16 C         142.4434  144.1634  161.7775 C.ar    1  UNL1        0.1682
     17 N         143.7054  143.3528  161.7980 N.ar    1  UNL1       -0.2304
     18 N         141.8413  144.5805  160.4685 N.am    1  UNL1       -0.2639
     19 C         140.5793  145.3911  160.4479 C.2     1  UNL1        0.2718
     20 O         139.9771  145.8083  159.1390 O.2     1  UNL1       -0.2707
     21 C         139.9195  145.7846  161.7363 C.3     1  UNL1        0.2898
     22 O         140.5218  145.3674  163.0453 O.3     1  UNL1       -0.4628
     23 H         142.2743  144.3223  159.6229 H       1  UNL1        0.1565
     24 C         141.0196  136.9887  163.5353 C.3     1  UNL1        0.0319
     25 C         139.6491  137.4185  163.9675 C.3     1  UNL1        0.0304
     26 C         139.3671  141.5992  165.6084 C.ar    1  UNL1        0.2348
     27 N         139.4611  140.2056  165.0614 N.ar    1  UNL1       -0.2099
     28 C         138.8240  139.8720  163.7450 C.ar    1  UNL1        0.0980
     29 C         138.9180  138.4785  163.1980 C.ar    1  UNL1       -0.0013
     30 C         138.2809  138.1449  161.8817 C.ar    1  UNL1        0.0179
     31 C         137.5499  139.2049  161.1123 C.ar    1  UNL1        0.0986
     32 N         137.4559  140.5984  161.6593 N.ar    1  UNL1       -0.2423
     33 C         138.0930  140.9320  162.9756 C.ar    1  UNL1        0.0995
     34 C         137.9990  142.3256  163.5226 C.ar    1  UNL1        0.0356
     35 C         138.6360  142.6592  164.8389 C.ar    1  UNL1        0.1230
     36 C         141.3914  141.4507  167.2302 C.3     1  UNL1        0.2543
     37 O         140.0041  141.9327  166.9248 O.3     1  UNL1       -0.4557
     38 C         138.5420  144.0527  165.3859 C.1     1  UNL1        0.1052
     39 N         138.4481  145.4463  165.9329 N.1     1  UNL1       -0.1907
@<TRIPOS>BOND
     1    36    37    1
     2    37    26    1
     3    26    27   ar
     4    27    28   ar
     5    28    29   ar
     6    29    25    1
     7    25    24    1
     8    24     1    1
     9     1     2    1
    10     2     3    1
    11     3     4    1
    12     4     9    1
    13     9    11    1
    14    11    12    1
    15    12    13   ar
    16    13    14   ar
    17    14    15   ar
    18    15    16   ar
    19    16    17   ar
    20    16    18    1
    21    18    19   am
    22    19    20    2
    23    19    21    1
    24    21    22    1
    25     4     5    1
    26     5     6    1
    27     4     7    1
    28     7     8    1
    29    29    30   ar
    30    30    31   ar
    31    31    32   ar
    32    32    33   ar
    33    33    34   ar
    34    34    35   ar
    35    35    38    1
    36    38    39    3
    37    35    26   ar
    38    33    28   ar
    39     6     1    1
    40     8     1    1
    41    17    12   ar
    42    22    15    1
    43     9    10    1
    44    18    23    1
@<TRIPOS>MOLECULE
*****
 39 44 0 0 0
SMALL
GASTEIGER

@<TRIPOS>ATOM
      1 C         139.5034  137.8113  164.4997 C.3     1  UNL1        0.0932
      2 C         139.1176  137.9060  163.0532 C.3     1  UNL1        0.0286
      3 C         140.1675  137.7923  161.9880 C.3     1  UNL1        0.0193
      4 C         141.6032  137.5838  162.3692 C.3     1  UNL1        0.0700
      5 C         141.9890  137.4891  163.8156 C.3     1  UNL1        0.0193
      6 C         140.9391  137.6028  164.8809 C.3     1  UNL1        0.0286
      7 C         141.0634  137.6402  162.9883 C.3     1  UNL1        0.1562
      8 O         140.1140  137.7431  163.9515 O.3     1  UNL1       -0.3572
      9 N         142.6531  137.4701  161.3039 N.3     1  UNL1       -0.2926
     10 H         142.1741  137.5587  160.4078 H       1  UNL1        0.1236
     11 C         143.8025  138.4336  161.2777 C.3     1  UNL1        0.1152
     12 C         143.5964  139.8585  161.6985 C.ar    1  UNL1        0.0765
     13 C         142.6877  140.7507  160.9058 C.ar    1  UNL1        0.0193
     14 C         142.4816  142.1756  161.3266 C.ar    1  UNL1        0.0411
     15 C         143.1842  142.7084  162.5402 C.ar    1  UNL1        0.1708
     16 C         144.0929  141.8162  163.3328 C.ar    1  UNL1        0.1682
     17 N         144.2990  140.3912  162.9120 N.ar    1  UNL1       -0.2304
     18 N         144.7955  142.3490  164.5463 N.am    1  UNL1       -0.2639
     19 C         144.5894  143.7739  164.9671 C.2     1  UNL1        0.2718
     20 O         145.2919  144.3067  166.1806 O.2     1  UNL1       -0.2707
     21 C         143.6807  144.6661  164.1745 C.3     1  UNL1        0.2898
     22 O         142.9781  144.1333  162.9609 O.3     1  UNL1       -0.4628
     23 H         145.3918  141.7634  165.0666 H       1  UNL1        0.1565
     24 C         138.4535  137.9251  165.5649 C.3     1  UNL1        0.0319
     25 C         138.0327  139.2763  166.0620 C.3     1  UNL1        0.0304
     26 C         141.4465  140.6493  168.6525 C.ar    1  UNL1        0.2348
     27 N         140.3086  140.1916  167.7890 N.ar    1  UNL1       -0.2099
     28 C         139.9586  140.9522  166.5443 C.ar    1  UNL1        0.0980
     29 C         138.8206  140.4945  165.6808 C.ar    1  UNL1       -0.0013
     30 C         138.4706  141.2549  164.4361 C.ar    1  UNL1        0.0179
     31 C         139.2586  142.4731  164.0550 C.ar    1  UNL1        0.0986
     32 N         140.3965  142.9307  164.9185 N.ar    1  UNL1       -0.2423
     33 C         140.7465  142.1703  166.1631 C.ar    1  UNL1        0.0995
     34 C         141.8845  142.6280  167.0266 C.ar    1  UNL1        0.0356
     35 C         142.2345  141.8675  168.2713 C.ar    1  UNL1        0.1230
     36 C         142.6697  138.6721  169.8120 C.3     1  UNL1        0.2543
     37 O         141.7965  139.8889  169.8971 O.3     1  UNL1       -0.4557
     38 C         143.3724  142.3252  169.1348 C.1     1  UNL1        0.1052
     39 N         144.5103  142.7829  169.9983 N.1     1  UNL1       -0.1907
@<TRIPOS>BOND
     1    36    37    1
     2    37    26    1
     3    26    27   ar
     4    27    28   ar
     5    28    29   ar
     6    29    25    1
     7    25    24    1
     8    24     1    1
     9     1     2    1
    10     2     3    1
    11     3     4    1
    12     4     9    1
    13     9    11    1
    14    11    12    1
    15    12    13   ar
    16    13    14   ar
    17    14    15   ar
    18    15    16   ar
    19    16    17   ar
    20    16    18    1
    21    18    19   am
    22    19    20    2
    23    19    21    1
    24    21    22    1
    25     4     5    1
    26     5     6    1
    27     4     7    1
    28     7     8    1
    29    29    30   ar
    30    30    31   ar
    31    31    32   ar
    32    32    33   ar
    33    33    34   ar
    34    34    35   ar
    35    35    38    1
    36    38    39    3
    37    35    26   ar
    38    33    28   ar
    39     6     1    1
    40     8     1    1
    41    17    12   ar
    42    22    15    1
    43     9    10    1
    44    18    23    1
@<TRIPOS>MOLECULE
*****
 39 44 0 0 0
SMALL
GASTEIGER

@<TRIPOS>ATOM
      1 C         143.3018  138.8184  163.6974 C.3     1  UNL1        0.0932
      2 C         142.3203  138.2539  164.6813 C.3     1  UNL1        0.0286
      3 C         141.0182  137.6858  164.2000 C.3     1  UNL1        0.0193
      4 C         140.6975  137.6822  162.7346 C.3     1  UNL1        0.0700
      5 C         141.6789  138.2466  161.7507 C.3     1  UNL1        0.0193
      6 C         142.9811  138.8147  162.2321 C.3     1  UNL1        0.0286
      7 C         141.4238  138.0043  162.9508 C.3     1  UNL1        0.1562
      8 O         142.6012  138.5180  163.3861 O.3     1  UNL1       -0.3572
      9 N         139.3954  137.1141  162.2533 N.3     1  UNL1       -0.2926
     10 H         139.2644  136.2261  162.7378 H       1  UNL1        0.1236
     11 C         138.1262  137.8943  162.4284 C.3     1  UNL1        0.1152
     12 C         138.1367  139.3868  162.2791 C.ar    1  UNL1        0.0765
     13 C         138.2637  140.0034  160.9176 C.ar    1  UNL1        0.0193
     14 C         138.2741  141.4959  160.7682 C.ar    1  UNL1        0.0411
     15 C         138.1575  142.3718  161.9804 C.ar    1  UNL1        0.1708
     16 C         138.0305  141.7552  163.3419 C.ar    1  UNL1        0.1682
     17 N         138.0201  140.2626  163.4912 N.ar    1  UNL1       -0.2304
     18 N         137.9139  142.6310  164.5540 N.am    1  UNL1       -0.2639
     19 C         137.9244  144.1236  164.4047 C.2     1  UNL1        0.2718
     20 O         137.8078  144.9994  165.6168 O.2     1  UNL1       -0.2707
     21 C         138.0514  144.7402  163.0432 C.3     1  UNL1        0.2898
     22 O         138.1680  143.8643  161.8310 O.3     1  UNL1       -0.4628
     23 H         137.8306  142.2262  165.4475 H       1  UNL1        0.1565
     24 C         144.6038  139.3864  164.1788 C.3     1  UNL1        0.0319
     25 C         144.7024  140.8406  164.5332 C.3     1  UNL1        0.0304
     26 C         142.2872  141.2946  168.3030 C.ar    1  UNL1        0.2348
     27 N         143.0922  141.1433  167.0464 N.ar    1  UNL1       -0.2099
     28 C         142.6657  141.8483  165.7929 C.ar    1  UNL1        0.0980
     29 C         143.4707  141.6969  164.5363 C.ar    1  UNL1       -0.0013
     30 C         143.0442  142.4018  163.2829 C.ar    1  UNL1        0.0179
     31 C         141.8127  143.2581  163.2860 C.ar    1  UNL1        0.0986
     32 N         141.0076  143.4094  164.5426 N.ar    1  UNL1       -0.2423
     33 C         141.4341  142.7045  165.7960 C.ar    1  UNL1        0.0995
     34 C         140.6291  142.8559  167.0526 C.ar    1  UNL1        0.0356
     35 C         141.0556  142.1510  168.3060 C.ar    1  UNL1        0.1230
     36 C         142.2509  139.1880  169.8231 C.3     1  UNL1        0.2543
     37 O         142.7137  140.5897  169.5564 O.3     1  UNL1       -0.4557
     38 C         140.2505  142.3023  169.5626 C.1     1  UNL1        0.1052
     39 N         139.4454  142.4536  170.8192 N.1     1  UNL1       -0.1907
@<TRIPOS>BOND
     1    36    37    1
     2    37    26    1
     3    26    27   ar
     4    27    28   ar
     5    28    29   ar
     6    29    25    1
     7    25    24    1
     8    24     1    1
     9     1     2    1
    10     2     3    1
    11     3     4    1
    12     4     9    1
    13     9    11    1
    14    11    12    1
    15    12    13   ar
    16    13    14   ar
    17    14    15   ar
    18    15    16   ar
    19    16    17   ar
    20    16    18    1
    21    18    19   am
    22    19    20    2
    23    19    21    1
    24    21    22    1
    25     4     5    1
    26     5     6    1
    27     4     7    1
    28     7     8    1
    29    29    30   ar
    30    30    31   ar
    31    31    32   ar
    32    32    33   ar
    33    33    34   ar
    34    34    35   ar
    35    35    38    1
    36    38    39    3
    37    35    26   ar
    38    33    28   ar
    39     6     1    1
    40     8     1    1
    41    17    12   ar
    42    22    15    1
    43     9    10    1
    44    18    23    1
@<TRIPOS>MOLECULE
*****
 39 44 0 0 0
SMALL
GASTEIGER

@<TRIPOS>ATOM
      1 C         144.4264  143.0033  163.0624 C.3     1  UNL1        0.0932
      2 C         143.7358  143.2273  161.7498 C.3     1  UNL1        0.0286
      3 C         142.6055  144.2088  161.6549 C.3     1  UNL1        0.0193
      4 C         142.1657  144.9663  162.8725 C.3     1  UNL1        0.0700
      5 C         142.8562  144.7424  164.1851 C.3     1  UNL1        0.0193
      6 C         143.9866  143.7608  164.2801 C.3     1  UNL1        0.0286
      7 C         142.7899  144.4389  162.9737 C.3     1  UNL1        0.1562
      8 O         143.8120  143.5514  163.0595 O.3     1  UNL1       -0.3572
      9 N         141.0355  145.9478  162.7776 N.3     1  UNL1       -0.2926
     10 H         141.2647  146.5883  162.0176 H       1  UNL1        0.1236
     11 C         139.6387  145.4614  162.5276 C.3     1  UNL1        0.1152
     12 C         139.2554  144.0592  162.8975 C.ar    1  UNL1        0.0765
     13 C         138.6855  143.7707  164.2547 C.ar    1  UNL1        0.0193
     14 C         138.3022  142.3685  164.6246 C.ar    1  UNL1        0.0411
     15 C         138.4887  141.2547  163.6373 C.ar    1  UNL1        0.1708
     16 C         139.0586  141.5432  162.2801 C.ar    1  UNL1        0.1682
     17 N         139.4419  142.9455  161.9102 N.ar    1  UNL1       -0.2304
     18 N         139.2451  140.4295  161.2928 N.am    1  UNL1       -0.2639
     19 C         138.8618  139.0272  161.6627 C.2     1  UNL1        0.2718
     20 O         139.0483  137.9135  160.6754 O.2     1  UNL1       -0.2707
     21 C         138.2919  138.7387  163.0199 C.3     1  UNL1        0.2898
     22 O         138.1054  139.8525  164.0072 O.3     1  UNL1       -0.4628
     23 H         139.6191  140.6189  160.4020 H       1  UNL1        0.1565
     24 C         145.5567  142.0218  163.1574 C.3     1  UNL1        0.0319
     25 C         145.4090  140.7865  163.9954 C.3     1  UNL1        0.0304
     26 C         142.2410  140.8110  167.1913 C.ar    1  UNL1        0.2348
     27 N         143.2970  140.8029  166.1260 N.ar    1  UNL1       -0.2099
     28 C         143.1348  139.9314  164.9159 C.ar    1  UNL1        0.0980
     29 C         144.1908  139.9232  163.8506 C.ar    1  UNL1       -0.0013
     30 C         144.0287  139.0518  162.6406 C.ar    1  UNL1        0.0179
     31 C         142.8106  138.1885  162.4958 C.ar    1  UNL1        0.0986
     32 N         141.7547  138.1967  163.5611 N.ar    1  UNL1       -0.2423
     33 C         141.9168  139.0681  164.7711 C.ar    1  UNL1        0.0995
     34 C         140.8608  139.0763  165.8364 C.ar    1  UNL1        0.0356
     35 C         141.0229  139.9477  167.0465 C.ar    1  UNL1        0.1230
     36 C         143.0737  141.1429  169.6299 C.3     1  UNL1        0.2543
     37 O         142.4031  141.6825  168.4013 O.3     1  UNL1       -0.4557
     38 C         139.9669  139.9559  168.1118 C.1     1  UNL1        0.1052
     39 N         138.9109  139.9641  169.1771 N.1     1  UNL1       -0.1907
@<TRIPOS>BOND
     1    36    37    1
     2    37    26    1
     3    26    27   ar
     4    27    28   ar
     5    28    29   ar
     6    29    25    1
     7    25    24    1
     8    24     1    1
     9     1     2    1
    10     2     3    1
    11     3     4    1
    12     4     9    1
    13     9    11    1
    14    11    12    1
    15    12    13   ar
    16    13    14   ar
    17    14    15   ar
    18    15    16   ar
    19    16    17   ar
    20    16    18    1
    21    18    19   am
    22    19    20    2
    23    19    21    1
    24    21    22    1
    25     4     5    1
    26     5     6    1
    27     4     7    1
    28     7     8    1
    29    29    30   ar
    30    30    31   ar
    31    31    32   ar
    32    32    33   ar
    33    33    34   ar
    34    34    35   ar
    35    35    38    1
    36    38    39    3
    37    35    26   ar
    38    33    28   ar
    39     6     1    1
    40     8     1    1
    41    17    12   ar
    42    22    15    1
    43     9    10    1
    44    18    23    1
@<TRIPOS>MOLECULE
*****
 39 44 0 0 0
SMALL
GASTEIGER

@<TRIPOS>ATOM
      1 C         144.6078  140.3920  163.4152 C.3     1  UNL1        0.0932
      2 C         144.0695  139.3513  164.3519 C.3     1  UNL1        0.0286
      3 C         143.0434  138.3684  163.8712 C.3     1  UNL1        0.0193
      4 C         142.5555  138.4263  162.4539 C.3     1  UNL1        0.0700
      5 C         143.0938  139.4669  161.5173 C.3     1  UNL1        0.0193
      6 C         144.1199  140.4498  161.9980 C.3     1  UNL1        0.0286
      7 C         143.1187  138.9861  162.6715 C.3     1  UNL1        0.1562
      8 O         144.0466  139.8748  163.1062 O.3     1  UNL1       -0.3572
      9 N         141.5294  137.4434  161.9733 N.3     1  UNL1       -0.2926
     10 H         141.4249  136.7438  162.7081 H       1  UNL1        0.1236
     11 C         140.1484  137.9122  161.6222 C.3     1  UNL1        0.1152
     12 C         139.5244  139.0440  162.3836 C.ar    1  UNL1        0.0765
     13 C         138.9014  138.7923  163.7247 C.ar    1  UNL1        0.0193
     14 C         138.2774  139.9240  164.4861 C.ar    1  UNL1        0.0411
     15 C         138.2763  141.3075  163.9064 C.ar    1  UNL1        0.1708
     16 C         138.8993  141.5592  162.5653 C.ar    1  UNL1        0.1682
     17 N         139.5233  140.4274  161.8039 N.ar    1  UNL1       -0.2304
     18 N         138.8982  142.9426  161.9855 N.am    1  UNL1       -0.2639
     19 C         138.2742  144.0744  162.7469 C.2     1  UNL1        0.2718
     20 O         138.2731  145.4578  162.1672 O.2     1  UNL1       -0.2707
     21 C         137.6512  143.8227  164.0880 C.3     1  UNL1        0.2898
     22 O         137.6523  142.4392  164.6677 O.3     1  UNL1       -0.4628
     23 H         139.3071  143.1078  161.1053 H       1  UNL1        0.1565
     24 C         145.6339  141.3748  163.8959 C.3     1  UNL1        0.0319
     25 C         145.2106  142.5681  164.7001 C.3     1  UNL1        0.0304
     26 C         142.3654  140.8878  167.7549 C.ar    1  UNL1        0.2348
     27 N         143.3138  141.4479  166.7367 N.ar    1  UNL1       -0.2099
     28 C         142.8253  142.4387  165.7219 C.ar    1  UNL1        0.0980
     29 C         143.7737  142.9988  164.7036 C.ar    1  UNL1       -0.0013
     30 C         143.2852  143.9896  163.6888 C.ar    1  UNL1        0.0179
     31 C         141.8484  144.4202  163.6923 C.ar    1  UNL1        0.0986
     32 N         140.9000  143.8601  164.7106 N.ar    1  UNL1       -0.2423
     33 C         141.3885  142.8693  165.7253 C.ar    1  UNL1        0.0995
     34 C         140.4401  142.3092  166.7436 C.ar    1  UNL1        0.0356
     35 C         140.9285  141.3185  167.7584 C.ar    1  UNL1        0.1230
     36 C         143.0136  140.3086  170.2033 C.3     1  UNL1        0.2543
     37 O         142.8539  139.8971  168.7697 O.3     1  UNL1       -0.4557
     38 C         139.9802  140.7584  168.7766 C.1     1  UNL1        0.1052
     39 N         139.0318  140.1983  169.7949 N.1     1  UNL1       -0.1907
@<TRIPOS>BOND
     1    36    37    1
     2    37    26    1
     3    26    27   ar
     4    27    28   ar
     5    28    29   ar
     6    29    25    1
     7    25    24    1
     8    24     1    1
     9     1     2    1
    10     2     3    1
    11     3     4    1
    12     4     9    1
    13     9    11    1
    14    11    12    1
    15    12    13   ar
    16    13    14   ar
    17    14    15   ar
    18    15    16   ar
    19    16    17   ar
    20    16    18    1
    21    18    19   am
    22    19    20    2
    23    19    21    1
    24    21    22    1
    25     4     5    1
    26     5     6    1
    27     4     7    1
    28     7     8    1
    29    29    30   ar
    30    30    31   ar
    31    31    32   ar
    32    32    33   ar
    33    33    34   ar
    34    34    35   ar
    35    35    38    1
    36    38    39    3
    37    35    26   ar
    38    33    28   ar
    39     6     1    1
    40     8     1    1
    41    17    12   ar
    42    22    15    1
    43     9    10    1
    44    18    23    1
@<TRIPOS>MOLECULE
*****
 39 44 0 0 0
SMALL
GASTEIGER

@<TRIPOS>ATOM
      1 C         142.7908  144.3309  163.6002 C.3     1  UNL1        0.0932
      2 C         141.4137  144.6426  164.1068 C.3     1  UNL1        0.0286
      3 C         140.2305  144.5061  163.1951 C.3     1  UNL1        0.0193
      4 C         140.4242  144.0579  161.7768 C.3     1  UNL1        0.0700
      5 C         141.8012  143.7462  161.2702 C.3     1  UNL1        0.0193
      6 C         142.9846  143.8827  162.1819 C.3     1  UNL1        0.0286
      7 C         141.1031  144.1179  162.2389 C.3     1  UNL1        0.1562
      8 O         142.1730  144.2414  163.0633 O.3     1  UNL1       -0.3572
      9 N         139.2410  143.9214  160.8651 N.3     1  UNL1       -0.2926
     10 H         139.6003  143.6189  159.9596 H       1  UNL1        0.1236
     11 C         138.1233  142.9867  161.2217 C.3     1  UNL1        0.1152
     12 C         138.4218  141.6906  161.9152 C.ar    1  UNL1        0.0765
     13 C         139.1545  140.6023  161.1881 C.ar    1  UNL1        0.0193
     14 C         139.4531  139.3063  161.8817 C.ar    1  UNL1        0.0411
     15 C         139.0189  139.0985  163.3024 C.ar    1  UNL1        0.1708
     16 C         138.2862  140.1868  164.0295 C.ar    1  UNL1        0.1682
     17 N         137.9877  141.4829  163.3359 N.ar    1  UNL1       -0.2304
     18 N         137.8521  139.9791  165.4502 N.am    1  UNL1       -0.2639
     19 C         138.1507  138.6830  166.1438 C.2     1  UNL1        0.2718
     20 O         137.7165  138.4753  167.5645 O.2     1  UNL1       -0.2707
     21 C         138.8834  137.5947  165.4167 C.3     1  UNL1        0.2898
     22 O         139.3175  137.8024  163.9960 O.3     1  UNL1       -0.4628
     23 H         137.3712  140.6934  165.9274 H       1  UNL1        0.1565
     24 C         143.9741  144.4674  164.5119 C.3     1  UNL1        0.0319
     25 C         144.5408  143.2563  165.1916 C.3     1  UNL1        0.0304
     26 C         141.8193  141.9789  168.5399 C.ar    1  UNL1        0.2348
     27 N         142.7265  142.4047  167.4238 N.ar    1  UNL1       -0.2099
     28 C         142.9109  141.5185  166.2277 C.ar    1  UNL1        0.0980
     29 C         143.8181  141.9443  165.1116 C.ar    1  UNL1       -0.0013
     30 C         144.0026  141.0581  163.9155 C.ar    1  UNL1        0.0179
     31 C         143.2799  139.7462  163.8356 C.ar    1  UNL1        0.0986
     32 N         142.3727  139.3204  164.9517 N.ar    1  UNL1       -0.2423
     33 C         142.1882  140.2065  166.1477 C.ar    1  UNL1        0.0995
     34 C         141.2810  139.7807  167.2639 C.ar    1  UNL1        0.0356
     35 C         141.0966  140.6669  168.4599 C.ar    1  UNL1        0.1230
     36 C         140.5030  143.8489  169.7732 C.3     1  UNL1        0.2543
     37 O         141.6348  142.8651  169.7360 O.3     1  UNL1       -0.4557
     38 C         140.1894  140.2411  169.5761 C.1     1  UNL1        0.1052
     39 N         139.2822  139.8153  170.6922 N.1     1  UNL1       -0.1907
@<TRIPOS>BOND
     1    36    37    1
     2    37    26    1
     3    26    27   ar
     4    27    28   ar
     5    28    29   ar
     6    29    25    1
     7    25    24    1
     8    24     1    1
     9     1     2    1
    10     2     3    1
    11     3     4    1
    12     4     9    1
    13     9    11    1
    14    11    12    1
    15    12    13   ar
    16    13    14   ar
    17    14    15   ar
    18    15    16   ar
    19    16    17   ar
    20    16    18    1
    21    18    19   am
    22    19    20    2
    23    19    21    1
    24    21    22    1
    25     4     5    1
    26     5     6    1
    27     4     7    1
    28     7     8    1
    29    29    30   ar
    30    30    31   ar
    31    31    32   ar
    32    32    33   ar
    33    33    34   ar
    34    34    35   ar
    35    35    38    1
    36    38    39    3
    37    35    26   ar
    38    33    28   ar
    39     6     1    1
    40     8     1    1
    41    17    12   ar
    42    22    15    1
    43     9    10    1
    44    18    23    1
