@<TRIPOS>MOLECULE
*****
 35 39 0 0 0
SMALL
GASTEIGER

@<TRIPOS>ATOM
      1 C         140.2034  140.8645  162.7521 C.ar    1  UNL1        0.1458
      2 N         140.7294  141.0898  161.3655 N.ar    1  UNL1       -0.2249
      3 C         141.2651  139.9365  160.5700 C.ar    1  UNL1        0.1260
      4 C         141.8451  139.8530  159.1891 C.ar    1  UNL1        0.1212
      5 N         142.2131  138.4228  158.9268 N.ar    1  UNL1       -0.2264
      6 N         141.8607  137.6223  160.1454 N.ar    1  UNL1       -0.1586
      7 C         141.2747  138.5579  161.1610 C.ar    1  UNL1        0.1762
      8 C         140.7487  138.3326  162.5475 C.ar    1  UNL1        0.2829
      9 O         140.7583  136.9539  163.1385 O.2     1  UNL1       -0.2652
     10 N         140.2130  139.4859  163.3430 N.ar    1  UNL1       -0.2793
     11 C         142.0474  142.4776  164.4833 C.3     1  UNL1        0.0311
     12 C         140.5897  142.8244  164.4133 C.ar    1  UNL1       -0.0189
     13 C         140.0540  143.9777  165.2088 C.ar    1  UNL1       -0.0042
     14 C         138.5963  144.3244  165.1388 C.ar    1  UNL1       -0.0003
     15 C         137.6743  143.5179  164.2732 C.ar    1  UNL1        0.0001
     16 C         138.2100  142.3645  163.4777 C.ar    1  UNL1        0.0027
     17 C         139.6677  142.0178  163.5477 C.ar    1  UNL1        0.0303
     18 C         142.8261  137.8870  157.6669 C.ar    1  UNL1        0.0836
     19 C         143.3072  138.8320  156.6061 C.ar    1  UNL1        0.0192
     20 C         143.9202  138.2961  155.3462 C.ar    1  UNL1        0.0022
     21 C         144.0520  136.8153  155.1472 C.ar    1  UNL1        0.0104
     22 C         143.5710  135.8702  156.2081 C.ar    1  UNL1        0.0699
     23 C         142.9580  136.4061  157.4679 C.ar    1  UNL1        0.0294
     24 C         143.7028  134.3893  156.0092 C.1     1  UNL1        0.1005
     25 N         143.8347  132.9085  155.8104 N.1     1  UNL1       -0.1908
     26 C         139.6870  139.2605  164.7297 C.3     1  UNL1        0.1119
     27 C         140.6103  139.3601  165.9075 C.3     1  UNL1        0.0388
     28 C         142.0576  138.9945  165.7591 C.3     1  UNL1        0.0048
     29 C         142.9809  139.0941  166.9369 C.3     1  UNL1        0.0174
     30 C         142.4571  139.5594  168.2633 C.3     1  UNL1        0.0720
     31 N         141.0099  139.9250  168.4118 N.3     1  UNL1       -0.2739
     32 C         140.0866  139.8253  167.2338 C.3     1  UNL1        0.0739
     33 C         140.4862  140.3902  169.7382 C.3     1  UNL1        0.0576
     34 C         141.4398  140.7084  170.8513 C.3     1  UNL1        0.0173
     35 C         139.0086  140.5372  169.9513 C.3     1  UNL1        0.0173
@<TRIPOS>BOND
     1    11    12    1
     2    12    13   ar
     3    13    14   ar
     4    14    15   ar
     5    15    16   ar
     6    16    17   ar
     7    17     1    1
     8     1     2   ar
     9     2     3   ar
    10     3     4   ar
    11     4     5   ar
    12     5    18    1
    13    18    19   ar
    14    19    20   ar
    15    20    21   ar
    16    21    22   ar
    17    22    24    1
    18    24    25    3
    19    22    23   ar
    20     5     6   ar
    21     6     7   ar
    22     7     8   ar
    23     8     9    2
    24     8    10   ar
    25    10    26    1
    26    26    27    1
    27    27    28    1
    28    28    29    1
    29    29    30    1
    30    30    31    1
    31    31    33    1
    32    33    34    1
    33    33    35    1
    34    31    32    1
    35    17    12   ar
    36    10     1   ar
    37    32    27    1
    38     7     3   ar
    39    23    18   ar
@<TRIPOS>MOLECULE
*****
 35 39 0 0 0
SMALL
GASTEIGER

@<TRIPOS>ATOM
      1 C         141.3445  143.4501  162.6688 C.ar    1  UNL1        0.1458
      2 N         141.6127  143.1761  161.2186 N.ar    1  UNL1       -0.2249
      3 C         140.4687  142.9864  160.2671 C.ar    1  UNL1        0.1260
      4 C         140.4242  142.7057  158.7943 C.ar    1  UNL1        0.1212
      5 N         138.9845  142.6165  158.3828 N.ar    1  UNL1       -0.2264
      6 N         138.1392  142.8420  159.6013 N.ar    1  UNL1       -0.1586
      7 C         139.0565  143.0706  160.7659 C.ar    1  UNL1        0.1762
      8 C         138.7884  143.3445  162.2161 C.ar    1  UNL1        0.2829
      9 O         137.3763  143.4287  162.7149 O.2     1  UNL1       -0.2652
     10 N         139.9324  143.5343  163.1675 N.ar    1  UNL1       -0.2793
     11 C         142.6039  141.0714  163.9937 C.3     1  UNL1        0.0311
     12 C         143.1183  142.4505  164.2827 C.ar    1  UNL1       -0.0189
     13 C         144.2623  142.6403  165.2342 C.ar    1  UNL1       -0.0042
     14 C         144.7766  144.0194  165.5231 C.ar    1  UNL1       -0.0003
     15 C         144.1469  145.2088  164.8606 C.ar    1  UNL1        0.0001
     16 C         143.0029  145.0190  163.9092 C.ar    1  UNL1        0.0027
     17 C         142.4886  143.6399  163.6203 C.ar    1  UNL1        0.0303
     18 C         138.4788  142.3488  156.9963 C.ar    1  UNL1        0.0836
     19 C         138.5038  143.4381  155.9654 C.ar    1  UNL1        0.0192
     20 C         137.9980  143.1703  154.5789 C.ar    1  UNL1        0.0022
     21 C         137.4673  141.8132  154.2231 C.ar    1  UNL1        0.0104
     22 C         137.4423  140.7238  155.2539 C.ar    1  UNL1        0.0699
     23 C         137.9481  140.9917  156.6405 C.ar    1  UNL1        0.0294
     24 C         136.9117  139.3667  154.8982 C.1     1  UNL1        0.1005
     25 N         136.3810  138.0096  154.5425 N.1     1  UNL1       -0.1908
     26 C         139.6642  143.8082  164.6178 C.3     1  UNL1        0.1119
     27 C         139.7319  142.6916  165.6170 C.3     1  UNL1        0.0388
     28 C         140.4360  142.8976  166.9254 C.3     1  UNL1        0.0048
     29 C         140.5036  141.7810  167.9246 C.3     1  UNL1        0.0174
     30 C         139.8671  140.4583  167.6155 C.3     1  UNL1        0.0720
     31 N         139.1630  140.2523  166.3071 N.3     1  UNL1       -0.2739
     32 C         139.0954  141.3690  165.3079 C.3     1  UNL1        0.0739
     33 C         138.5265  138.9297  165.9981 C.3     1  UNL1        0.0576
     34 C         138.8429  138.2276  164.7110 C.3     1  UNL1        0.0173
     35 C         137.5735  138.3092  166.9764 C.3     1  UNL1        0.0173
@<TRIPOS>BOND
     1    11    12    1
     2    12    13   ar
     3    13    14   ar
     4    14    15   ar
     5    15    16   ar
     6    16    17   ar
     7    17     1    1
     8     1     2   ar
     9     2     3   ar
    10     3     4   ar
    11     4     5   ar
    12     5    18    1
    13    18    19   ar
    14    19    20   ar
    15    20    21   ar
    16    21    22   ar
    17    22    24    1
    18    24    25    3
    19    22    23   ar
    20     5     6   ar
    21     6     7   ar
    22     7     8   ar
    23     8     9    2
    24     8    10   ar
    25    10    26    1
    26    26    27    1
    27    27    28    1
    28    28    29    1
    29    29    30    1
    30    30    31    1
    31    31    33    1
    32    33    34    1
    33    33    35    1
    34    31    32    1
    35    17    12   ar
    36    10     1   ar
    37    32    27    1
    38     7     3   ar
    39    23    18   ar
@<TRIPOS>MOLECULE
*****
 35 39 0 0 0
SMALL
GASTEIGER

@<TRIPOS>ATOM
      1 C         142.5433  142.7970  162.1584 C.ar    1  UNL1        0.1458
      2 N         142.5645  142.8560  160.6597 N.ar    1  UNL1       -0.2249
      3 C         141.6762  143.8231  159.9347 C.ar    1  UNL1        0.1260
      4 C         141.4811  144.1060  158.4746 C.ar    1  UNL1        0.1212
      5 N         140.4511  145.1888  158.3458 N.ar    1  UNL1       -0.2264
      6 N         140.0096  145.5752  159.7263 N.ar    1  UNL1       -0.1586
      7 C         140.7668  144.7311  160.7083 C.ar    1  UNL1        0.1762
      8 C         140.7457  144.6720  162.2070 C.ar    1  UNL1        0.2829
      9 O         139.8363  145.5800  162.9807 O.2     1  UNL1       -0.2652
     10 N         141.6340  143.7049  162.9320 N.ar    1  UNL1       -0.2793
     11 C         141.6384  139.9712  162.6012 C.3     1  UNL1        0.0311
     12 C         142.9792  140.4170  163.1049 C.ar    1  UNL1       -0.0189
     13 C         143.8675  139.4499  163.8299 C.ar    1  UNL1       -0.0042
     14 C         145.2082  139.8957  164.3336 C.ar    1  UNL1       -0.0003
     15 C         145.6607  141.3086  164.1122 C.ar    1  UNL1        0.0001
     16 C         144.7724  142.2757  163.3872 C.ar    1  UNL1        0.0027
     17 C         143.4317  141.8299  162.8835 C.ar    1  UNL1        0.0303
     18 C         139.9504  145.7813  157.0620 C.ar    1  UNL1        0.0836
     19 C         139.8765  144.9365  155.8247 C.ar    1  UNL1        0.0192
     20 C         139.3758  145.5291  154.5408 C.ar    1  UNL1        0.0022
     21 C         138.9491  146.9663  154.4942 C.ar    1  UNL1        0.0104
     22 C         139.0230  147.8111  155.7315 C.ar    1  UNL1        0.0699
     23 C         139.5237  147.2185  157.0154 C.ar    1  UNL1        0.0294
     24 C         138.5963  149.2484  155.6850 C.1     1  UNL1        0.1005
     25 N         138.1696  150.6856  155.6384 N.1     1  UNL1       -0.1908
     26 C         141.6128  143.6459  164.4308 C.3     1  UNL1        0.1119
     27 C         140.8992  142.5254  165.1272 C.3     1  UNL1        0.0388
     28 C         139.5022  142.1591  164.7218 C.3     1  UNL1        0.0048
     29 C         138.7885  141.0386  165.4182 C.3     1  UNL1        0.0174
     30 C         139.4719  140.2843  166.5202 C.3     1  UNL1        0.0720
     31 N         140.8688  140.6505  166.9256 N.3     1  UNL1       -0.2739
     32 C         141.5825  141.7711  166.2291 C.3     1  UNL1        0.0739
     33 C         141.5521  139.8962  168.0274 C.3     1  UNL1        0.0576
     34 C         140.9728  139.9009  169.4109 C.3     1  UNL1        0.0173
     35 C         142.8149  139.1371  167.7456 C.3     1  UNL1        0.0173
@<TRIPOS>BOND
     1    11    12    1
     2    12    13   ar
     3    13    14   ar
     4    14    15   ar
     5    15    16   ar
     6    16    17   ar
     7    17     1    1
     8     1     2   ar
     9     2     3   ar
    10     3     4   ar
    11     4     5   ar
    12     5    18    1
    13    18    19   ar
    14    19    20   ar
    15    20    21   ar
    16    21    22   ar
    17    22    24    1
    18    24    25    3
    19    22    23   ar
    20     5     6   ar
    21     6     7   ar
    22     7     8   ar
    23     8     9    2
    24     8    10   ar
    25    10    26    1
    26    26    27    1
    27    27    28    1
    28    28    29    1
    29    29    30    1
    30    30    31    1
    31    31    33    1
    32    33    34    1
    33    33    35    1
    34    31    32    1
    35    17    12   ar
    36    10     1   ar
    37    32    27    1
    38     7     3   ar
    39    23    18   ar
@<TRIPOS>MOLECULE
*****
 35 39 0 0 0
SMALL
GASTEIGER

@<TRIPOS>ATOM
      1 C         140.7475  141.0683  161.8728 C.ar    1  UNL1        0.1458
      2 N         140.2359  140.3266  160.6735 N.ar    1  UNL1       -0.2249
      3 C         141.1788  139.5161  159.8345 C.ar    1  UNL1        0.1260
      4 C         140.9662  138.6851  158.6040 C.ar    1  UNL1        0.1212
      5 N         142.2893  138.1026  158.2037 N.ar    1  UNL1       -0.2264
      6 N         143.3196  138.5737  159.1869 N.ar    1  UNL1       -0.1586
      7 C         142.6333  139.4473  160.1947 C.ar    1  UNL1        0.1762
      8 C         143.1448  140.1890  161.3940 C.ar    1  UNL1        0.2829
      9 O         144.5993  140.1202  161.7542 O.2     1  UNL1       -0.2652
     10 N         142.2019  140.9995  162.2330 N.ar    1  UNL1       -0.2793
     11 C         139.2164  139.7609  164.0968 C.3     1  UNL1        0.0311
     12 C         139.0390  141.2252  163.8238 C.ar    1  UNL1       -0.0189
     13 C         138.0961  142.0358  164.6628 C.ar    1  UNL1       -0.0042
     14 C         137.9187  143.5000  164.3898 C.ar    1  UNL1       -0.0003
     15 C         138.6843  144.1537  163.2778 C.ar    1  UNL1        0.0001
     16 C         139.6272  143.3432  162.4388 C.ar    1  UNL1        0.0027
     17 C         139.8046  141.8789  162.7118 C.ar    1  UNL1        0.0303
     18 C         142.5383  137.2065  157.0269 C.ar    1  UNL1        0.0836
     19 C         142.2037  137.6763  155.6423 C.ar    1  UNL1        0.0192
     20 C         142.4528  136.7800  154.4656 C.ar    1  UNL1        0.0022
     21 C         143.0365  135.4140  154.6734 C.ar    1  UNL1        0.0104
     22 C         143.3712  134.9442  156.0580 C.ar    1  UNL1        0.0699
     23 C         143.1221  135.8404  157.2348 C.ar    1  UNL1        0.0294
     24 C         143.9549  133.5782  156.2660 C.1     1  UNL1        0.1005
     25 N         144.5387  132.2122  156.4740 N.1     1  UNL1       -0.1908
     26 C         142.7135  141.7412  163.4322 C.3     1  UNL1        0.1119
     27 C         142.6976  141.0869  164.7818 C.3     1  UNL1        0.0388
     28 C         142.8316  139.5971  164.8947 C.3     1  UNL1        0.0048
     29 C         142.8157  138.9428  166.2443 C.3     1  UNL1        0.0174
     30 C         142.6656  139.7782  167.4812 C.3     1  UNL1        0.0720
     31 N         142.5316  141.2680  167.3683 N.3     1  UNL1       -0.2739
     32 C         142.5476  141.9223  166.0186 C.3     1  UNL1        0.0739
     33 C         142.3816  142.1033  168.6051 C.3     1  UNL1        0.0576
     34 C         143.5419  142.2741  169.5401 C.3     1  UNL1        0.0173
     35 C         141.0710  142.7678  168.9069 C.3     1  UNL1        0.0173
@<TRIPOS>BOND
     1    11    12    1
     2    12    13   ar
     3    13    14   ar
     4    14    15   ar
     5    15    16   ar
     6    16    17   ar
     7    17     1    1
     8     1     2   ar
     9     2     3   ar
    10     3     4   ar
    11     4     5   ar
    12     5    18    1
    13    18    19   ar
    14    19    20   ar
    15    20    21   ar
    16    21    22   ar
    17    22    24    1
    18    24    25    3
    19    22    23   ar
    20     5     6   ar
    21     6     7   ar
    22     7     8   ar
    23     8     9    2
    24     8    10   ar
    25    10    26    1
    26    26    27    1
    27    27    28    1
    28    28    29    1
    29    29    30    1
    30    30    31    1
    31    31    33    1
    32    33    34    1
    33    33    35    1
    34    31    32    1
    35    17    12   ar
    36    10     1   ar
    37    32    27    1
    38     7     3   ar
    39    23    18   ar
@<TRIPOS>MOLECULE
*****
 35 39 0 0 0
SMALL
GASTEIGER

@<TRIPOS>ATOM
      1 C         142.8678  139.3678  160.7148 C.ar    1  UNL1        0.1458
      2 N         143.4468  138.5180  159.6226 N.ar    1  UNL1       -0.2249
      3 C         142.5613  137.9936  158.5313 C.ar    1  UNL1        0.1260
      4 C         142.8455  137.1385  157.3321 C.ar    1  UNL1        0.1212
      5 N         141.5569  136.9353  156.5919 N.ar    1  UNL1       -0.2264
      6 N         140.4762  137.6648  157.3335 N.ar    1  UNL1       -0.1586
      7 C         141.0970  138.3189  158.5322 C.ar    1  UNL1        0.1762
      8 C         140.5181  139.1686  159.6243 C.ar    1  UNL1        0.2829
      9 O         139.0538  139.4939  159.6252 O.2     1  UNL1       -0.2652
     10 N         141.4036  139.6931  160.7156 N.ar    1  UNL1       -0.2793
     11 C         144.1770  142.0514  160.4246 C.3     1  UNL1        0.0311
     12 C         144.4079  141.2341  161.6610 C.ar    1  UNL1       -0.0189
     13 C         145.2933  141.7585  162.7523 C.ar    1  UNL1       -0.0042
     14 C         145.5241  140.9412  163.9887 C.ar    1  UNL1       -0.0003
     15 C         144.8695  139.5994  164.1338 C.ar    1  UNL1        0.0001
     16 C         143.9841  139.0750  163.0425 C.ar    1  UNL1        0.0027
     17 C         143.7533  139.8923  161.8061 C.ar    1  UNL1        0.0303
     18 C         141.3798  136.1419  155.3312 C.ar    1  UNL1        0.0836
     19 C         140.4994  136.6631  154.2344 C.ar    1  UNL1        0.0192
     20 C         140.3224  135.8696  152.9738 C.ar    1  UNL1        0.0022
     21 C         141.0259  134.5550  152.8100 C.ar    1  UNL1        0.0104
     22 C         141.9064  134.0338  153.9068 C.ar    1  UNL1        0.0699
     23 C         142.0833  134.8273  155.1674 C.ar    1  UNL1        0.0294
     24 C         142.6099  132.7192  153.7431 C.1     1  UNL1        0.1005
     25 N         143.3135  131.4046  153.5793 N.1     1  UNL1       -0.1908
     26 C         140.8246  140.5429  161.8078 C.3     1  UNL1        0.1119
     27 C         140.3080  139.9028  163.0620 C.3     1  UNL1        0.0388
     28 C         139.7229  138.5224  163.0136 C.3     1  UNL1        0.0048
     29 C         139.2063  137.8824  164.2679 C.3     1  UNL1        0.0174
     30 C         139.2748  138.6226  165.5708 C.3     1  UNL1        0.0720
     31 N         139.8598  140.0030  165.6193 N.3     1  UNL1       -0.2739
     32 C         140.3765  140.6430  164.3649 C.3     1  UNL1        0.0739
     33 C         139.9283  140.7432  166.9221 C.3     1  UNL1        0.0576
     34 C         139.5338  140.0569  168.1962 C.3     1  UNL1        0.0173
     35 C         140.3912  142.1697  166.9507 C.3     1  UNL1        0.0173
@<TRIPOS>BOND
     1    11    12    1
     2    12    13   ar
     3    13    14   ar
     4    14    15   ar
     5    15    16   ar
     6    16    17   ar
     7    17     1    1
     8     1     2   ar
     9     2     3   ar
    10     3     4   ar
    11     4     5   ar
    12     5    18    1
    13    18    19   ar
    14    19    20   ar
    15    20    21   ar
    16    21    22   ar
    17    22    24    1
    18    24    25    3
    19    22    23   ar
    20     5     6   ar
    21     6     7   ar
    22     7     8   ar
    23     8     9    2
    24     8    10   ar
    25    10    26    1
    26    26    27    1
    27    27    28    1
    28    28    29    1
    29    29    30    1
    30    30    31    1
    31    31    33    1
    32    33    34    1
    33    33    35    1
    34    31    32    1
    35    17    12   ar
    36    10     1   ar
    37    32    27    1
    38     7     3   ar
    39    23    18   ar
@<TRIPOS>MOLECULE
*****
 35 39 0 0 0
SMALL
GASTEIGER

@<TRIPOS>ATOM
      1 C         141.4911  143.1397  162.3419 C.ar    1  UNL1        0.1458
      2 N         141.4529  143.3089  160.8519 N.ar    1  UNL1       -0.2249
      3 C         142.6621  142.9782  160.0283 C.ar    1  UNL1        0.1260
      4 C         142.9196  143.0440  158.5520 C.ar    1  UNL1        0.1212
      5 N         144.3262  142.5847  158.3060 N.ar    1  UNL1       -0.2264
      6 N         144.9380  142.2351  159.6301 N.ar    1  UNL1       -0.1586
      7 C         143.9095  142.4783  160.6946 C.ar    1  UNL1        0.1762
      8 C         143.9477  142.3091  162.1845 C.ar    1  UNL1        0.2829
      9 O         145.1952  141.8092  162.8509 O.2     1  UNL1       -0.2652
     10 N         142.7385  142.6399  163.0081 N.ar    1  UNL1       -0.2793
     11 C         139.1133  141.3108  162.3170 C.3     1  UNL1        0.0311
     12 C         139.0929  142.5560  163.1531 C.ar    1  UNL1       -0.0189
     13 C         137.8837  142.8868  163.9767 C.ar    1  UNL1       -0.0042
     14 C         137.8634  144.1320  164.8128 C.ar    1  UNL1       -0.0003
     15 C         139.0523  145.0465  164.8252 C.ar    1  UNL1        0.0001
     16 C         140.2615  144.7158  164.0016 C.ar    1  UNL1        0.0027
     17 C         140.2818  143.4705  163.1655 C.ar    1  UNL1        0.0303
     18 C         145.0023  142.4914  156.9702 C.ar    1  UNL1        0.0836
     19 C         144.1979  142.6262  155.7114 C.ar    1  UNL1        0.0192
     20 C         144.8741  142.5329  154.3757 C.ar    1  UNL1        0.0022
     21 C         146.3546  142.3048  154.2988 C.ar    1  UNL1        0.0104
     22 C         147.1591  142.1700  155.5576 C.ar    1  UNL1        0.0699
     23 C         146.4829  142.2633  156.8934 C.ar    1  UNL1        0.0294
     24 C         148.6396  141.9420  155.4808 C.1     1  UNL1        0.1005
     25 N         150.1202  141.7138  155.4041 N.1     1  UNL1       -0.1908
     26 C         142.7768  142.4707  164.4981 C.3     1  UNL1        0.1119
     27 C         141.7665  141.5964  165.1799 C.3     1  UNL1        0.0388
     28 C         141.0329  142.0992  166.3878 C.3     1  UNL1        0.0048
     29 C         140.0226  141.2249  167.0695 C.3     1  UNL1        0.0174
     30 C         139.7458  139.8477  166.5434 C.3     1  UNL1        0.0720
     31 N         140.4794  139.3448  165.3355 N.3     1  UNL1       -0.2739
     32 C         141.4898  140.2192  164.6538 C.3     1  UNL1        0.0739
     33 C         140.2027  137.9676  164.8094 C.3     1  UNL1        0.0576
     34 C         141.2126  137.2802  163.9393 C.3     1  UNL1        0.0173
     35 C         138.9158  137.2779  165.1536 C.3     1  UNL1        0.0173
@<TRIPOS>BOND
     1    11    12    1
     2    12    13   ar
     3    13    14   ar
     4    14    15   ar
     5    15    16   ar
     6    16    17   ar
     7    17     1    1
     8     1     2   ar
     9     2     3   ar
    10     3     4   ar
    11     4     5   ar
    12     5    18    1
    13    18    19   ar
    14    19    20   ar
    15    20    21   ar
    16    21    22   ar
    17    22    24    1
    18    24    25    3
    19    22    23   ar
    20     5     6   ar
    21     6     7   ar
    22     7     8   ar
    23     8     9    2
    24     8    10   ar
    25    10    26    1
    26    26    27    1
    27    27    28    1
    28    28    29    1
    29    29    30    1
    30    30    31    1
    31    31    33    1
    32    33    34    1
    33    33    35    1
    34    31    32    1
    35    17    12   ar
    36    10     1   ar
    37    32    27    1
    38     7     3   ar
    39    23    18   ar
@<TRIPOS>MOLECULE
*****
 35 39 0 0 0
SMALL
GASTEIGER

@<TRIPOS>ATOM
      1 C         141.4215  141.2324  160.7354 C.ar    1  UNL1        0.1458
      2 N         141.0634  140.7128  159.3745 N.ar    1  UNL1       -0.2249
      3 C         141.6446  139.4179  158.8894 C.ar    1  UNL1        0.1260
      4 C         141.4768  138.6611  157.6052 C.ar    1  UNL1        0.1212
      5 N         142.3124  137.4181  157.6872 N.ar    1  UNL1       -0.2264
      6 N         142.9966  137.4066  159.0221 N.ar    1  UNL1       -0.1586
      7 C         142.5838  138.6426  159.7651 C.ar    1  UNL1        0.1762
      8 C         142.9419  139.1623  161.1258 C.ar    1  UNL1        0.2829
      9 O         143.8811  138.3870  162.0015 O.2     1  UNL1       -0.2652
     10 N         142.3607  140.4572  161.6109 N.ar    1  UNL1       -0.2793
     11 C         138.6224  141.3104  161.8118 C.3     1  UNL1        0.0311
     12 C         139.4408  142.5664  161.7587 C.ar    1  UNL1       -0.0189
     13 C         138.8596  143.8614  162.2439 C.ar    1  UNL1       -0.0042
     14 C         139.6780  145.1173  162.1908 C.ar    1  UNL1       -0.0003
     15 C         141.0776  145.0784  161.6525 C.ar    1  UNL1        0.0001
     16 C         141.6587  143.7834  161.1674 C.ar    1  UNL1        0.0027
     17 C         140.8403  142.5275  161.2205 C.ar    1  UNL1        0.0303
     18 C         142.4412  136.3704  156.6215 C.ar    1  UNL1        0.0836
     19 C         141.6994  136.5225  155.3267 C.ar    1  UNL1        0.0192
     20 C         141.8283  135.4747  154.2610 C.ar    1  UNL1        0.0022
     21 C         142.6989  134.2750  154.4901 C.ar    1  UNL1        0.0104
     22 C         143.4408  134.1229  155.7848 C.ar    1  UNL1        0.0699
     23 C         143.3119  135.1707  156.8505 C.ar    1  UNL1        0.0294
     24 C         144.3115  132.9232  156.0140 C.1     1  UNL1        0.1005
     25 N         145.1822  131.7235  156.2430 N.1     1  UNL1       -0.1908
     26 C         142.7188  140.9768  162.9718 C.3     1  UNL1        0.1119
     27 C         141.6729  141.0548  164.0440 C.3     1  UNL1        0.0388
     28 C         141.4840  142.3267  164.8166 C.3     1  UNL1        0.0048
     29 C         140.4380  142.4046  165.8888 C.3     1  UNL1        0.0174
     30 C         139.5808  141.2106  166.1886 C.3     1  UNL1        0.0720
     31 N         139.7696  139.9388  165.4161 N.3     1  UNL1       -0.2739
     32 C         140.8157  139.8609  164.3438 C.3     1  UNL1        0.0739
     33 C         138.9124  138.7450  165.7159 C.3     1  UNL1        0.0576
     34 C         138.9857  137.5299  164.8395 C.3     1  UNL1        0.0173
     35 C         137.9819  138.7662  166.8922 C.3     1  UNL1        0.0173
@<TRIPOS>BOND
     1    11    12    1
     2    12    13   ar
     3    13    14   ar
     4    14    15   ar
     5    15    16   ar
     6    16    17   ar
     7    17     1    1
     8     1     2   ar
     9     2     3   ar
    10     3     4   ar
    11     4     5   ar
    12     5    18    1
    13    18    19   ar
    14    19    20   ar
    15    20    21   ar
    16    21    22   ar
    17    22    24    1
    18    24    25    3
    19    22    23   ar
    20     5     6   ar
    21     6     7   ar
    22     7     8   ar
    23     8     9    2
    24     8    10   ar
    25    10    26    1
    26    26    27    1
    27    27    28    1
    28    28    29    1
    29    29    30    1
    30    30    31    1
    31    31    33    1
    32    33    34    1
    33    33    35    1
    34    31    32    1
    35    17    12   ar
    36    10     1   ar
    37    32    27    1
    38     7     3   ar
    39    23    18   ar
@<TRIPOS>MOLECULE
*****
 35 39 0 0 0
SMALL
GASTEIGER

@<TRIPOS>ATOM
      1 C         140.3581  141.2732  161.5215 C.ar    1  UNL1        0.1458
      2 N         140.4809  141.4311  160.0348 N.ar    1  UNL1       -0.2249
      3 C         140.3206  142.7847  159.4087 C.ar    1  UNL1        0.1260
      4 C         140.3875  143.2453  157.9827 C.ar    1  UNL1        0.1212
      5 N         140.1457  144.7255  157.9619 N.ar    1  UNL1       -0.2264
      6 N         139.9294  145.1798  159.3750 N.ar    1  UNL1       -0.1586
      7 C         140.0374  143.9803  160.2692 C.ar    1  UNL1        0.1762
      8 C         139.9146  143.8223  161.7557 C.ar    1  UNL1        0.2829
      9 O         139.6315  145.0179  162.6162 O.2     1  UNL1       -0.2652
     10 N         140.0749  142.4687  162.3819 N.ar    1  UNL1       -0.2793
     11 C         137.9478  139.5614  162.0313 C.3     1  UNL1        0.0311
     12 C         139.3132  139.0636  162.4026 C.ar    1  UNL1       -0.0189
     13 C         139.4736  137.7100  163.0287 C.ar    1  UNL1       -0.0042
     14 C         140.8390  137.2124  163.3999 C.ar    1  UNL1       -0.0003
     15 C         142.0442  138.0683  163.1450 C.ar    1  UNL1        0.0001
     16 C         141.8839  139.4219  162.5189 C.ar    1  UNL1        0.0027
     17 C         140.5184  139.9195  162.1477 C.ar    1  UNL1        0.0303
     18 C         140.1241  145.5982  156.7421 C.ar    1  UNL1        0.0836
     19 C         140.7757  145.1314  155.4742 C.ar    1  UNL1        0.0192
     20 C         140.7540  146.0043  154.2545 C.ar    1  UNL1        0.0022
     21 C         140.0807  147.3438  154.3025 C.ar    1  UNL1        0.0104
     22 C         139.4291  147.8106  155.5704 C.ar    1  UNL1        0.0699
     23 C         139.4508  146.9377  156.7902 C.ar    1  UNL1        0.0294
     24 C         138.7558  149.1501  155.6185 C.1     1  UNL1        0.1005
     25 N         138.0825  150.4896  155.6668 N.1     1  UNL1       -0.1908
     26 C         139.9521  142.3108  163.8685 C.3     1  UNL1        0.1119
     27 C         141.1696  142.4205  164.7376 C.3     1  UNL1        0.0388
     28 C         142.5203  142.6167  164.1151 C.3     1  UNL1        0.0048
     29 C         143.7379  142.7264  164.9841 C.3     1  UNL1        0.0174
     30 C         143.6050  142.6399  166.4758 C.3     1  UNL1        0.0720
     31 N         142.2544  142.4438  167.0983 N.3     1  UNL1       -0.2739
     32 C         141.0368  142.3341  166.2291 C.3     1  UNL1        0.0739
     33 C         142.1215  142.3573  168.5899 C.3     1  UNL1        0.0576
     34 C         140.8000  142.6356  169.2425 C.3     1  UNL1        0.0173
     35 C         143.3104  141.9926  169.4288 C.3     1  UNL1        0.0173
@<TRIPOS>BOND
     1    11    12    1
     2    12    13   ar
     3    13    14   ar
     4    14    15   ar
     5    15    16   ar
     6    16    17   ar
     7    17     1    1
     8     1     2   ar
     9     2     3   ar
    10     3     4   ar
    11     4     5   ar
    12     5    18    1
    13    18    19   ar
    14    19    20   ar
    15    20    21   ar
    16    21    22   ar
    17    22    24    1
    18    24    25    3
    19    22    23   ar
    20     5     6   ar
    21     6     7   ar
    22     7     8   ar
    23     8     9    2
    24     8    10   ar
    25    10    26    1
    26    26    27    1
    27    27    28    1
    28    28    29    1
    29    29    30    1
    30    30    31    1
    31    31    33    1
    32    33    34    1
    33    33    35    1
    34    31    32    1
    35    17    12   ar
    36    10     1   ar
    37    32    27    1
    38     7     3   ar
    39    23    18   ar
@<TRIPOS>MOLECULE
*****
 35 39 0 0 0
SMALL
GASTEIGER

@<TRIPOS>ATOM
      1 C         142.4100  142.4883  161.6740 C.ar    1  UNL1        0.1458
      2 N         142.7877  142.8967  160.2809 N.ar    1  UNL1       -0.2249
      3 C         141.8746  143.7818  159.4854 C.ar    1  UNL1        0.1260
      4 C         141.9794  144.3447  158.0990 C.ar    1  UNL1        0.1212
      5 N         140.7535  145.1693  157.8397 N.ar    1  UNL1       -0.2264
      6 N         139.8911  145.1161  159.0658 N.ar    1  UNL1       -0.1586
      7 C         140.5840  144.2585  160.0830 C.ar    1  UNL1        0.1762
      8 C         140.2064  143.8501  161.4760 C.ar    1  UNL1        0.2829
      9 O         138.9158  144.3268  162.0736 O.2     1  UNL1       -0.2652
     10 N         141.1195  142.9650  162.2715 N.ar    1  UNL1       -0.2793
     11 C         144.3609  143.6959  163.6068 C.3     1  UNL1        0.0311
     12 C         144.2986  142.2069  163.4360 C.ar    1  UNL1       -0.0189
     13 C         145.2117  141.3218  164.2315 C.ar    1  UNL1       -0.0042
     14 C         145.1493  139.8329  164.0607 C.ar    1  UNL1       -0.0003
     15 C         144.1738  139.2291  163.0943 C.ar    1  UNL1        0.0001
     16 C         143.2608  140.1142  162.2988 C.ar    1  UNL1        0.0027
     17 C         143.3232  141.6031  162.4696 C.ar    1  UNL1        0.0303
     18 C         140.4444  145.9162  156.5761 C.ar    1  UNL1        0.0836
     19 C         140.8135  145.3267  155.2471 C.ar    1  UNL1        0.0192
     20 C         140.5043  146.0737  153.9835 C.ar    1  UNL1        0.0022
     21 C         139.8259  147.4099  154.0490 C.ar    1  UNL1        0.0104
     22 C         139.4568  147.9993  155.3780 C.ar    1  UNL1        0.0699
     23 C         139.7660  147.2524  156.6415 C.ar    1  UNL1        0.0294
     24 C         138.7784  149.3355  155.4435 C.1     1  UNL1        0.1005
     25 N         138.1000  150.6717  155.5090 N.1     1  UNL1       -0.1908
     26 C         140.7419  142.5566  163.6647 C.3     1  UNL1        0.1119
     27 C         140.0300  141.2572  163.8984 C.3     1  UNL1        0.0388
     28 C         139.7269  140.3497  162.7431 C.3     1  UNL1        0.0048
     29 C         139.0150  139.0503  162.9768 C.3     1  UNL1        0.0174
     30 C         138.6061  138.6584  164.3658 C.3     1  UNL1        0.0720
     31 N         138.9091  139.5658  165.5211 N.3     1  UNL1       -0.2739
     32 C         139.6211  140.8653  165.2873 C.3     1  UNL1        0.0739
     33 C         138.5002  139.1739  166.9100 C.3     1  UNL1        0.0576
     34 C         137.4333  138.1396  167.1140 C.3     1  UNL1        0.0173
     35 C         139.1584  139.8164  168.0950 C.3     1  UNL1        0.0173
@<TRIPOS>BOND
     1    11    12    1
     2    12    13   ar
     3    13    14   ar
     4    14    15   ar
     5    15    16   ar
     6    16    17   ar
     7    17     1    1
     8     1     2   ar
     9     2     3   ar
    10     3     4   ar
    11     4     5   ar
    12     5    18    1
    13    18    19   ar
    14    19    20   ar
    15    20    21   ar
    16    21    22   ar
    17    22    24    1
    18    24    25    3
    19    22    23   ar
    20     5     6   ar
    21     6     7   ar
    22     7     8   ar
    23     8     9    2
    24     8    10   ar
    25    10    26    1
    26    26    27    1
    27    27    28    1
    28    28    29    1
    29    29    30    1
    30    30    31    1
    31    31    33    1
    32    33    34    1
    33    33    35    1
    34    31    32    1
    35    17    12   ar
    36    10     1   ar
    37    32    27    1
    38     7     3   ar
    39    23    18   ar
