@<TRIPOS>MOLECULE
*****
 38 42 0 0 0
SMALL
GASTEIGER

@<TRIPOS>ATOM
      1 C         140.4913  141.1937  166.3455 C.2     1  UNL1        0.0097
      2 C         139.5896  142.2659  165.8097 C.2     1  UNL1       -0.0004
      3 C         139.6149  142.9217  164.4609 C.ar    1  UNL1        0.0150
      4 C         138.5316  143.9512  164.3316 C.ar    1  UNL1        0.0028
      5 C         138.3818  144.7260  163.0560 C.ar    1  UNL1        0.0207
      6 C         139.3152  144.4715  161.9098 C.ar    1  UNL1        0.0985
      7 N         140.3984  143.4420  162.0390 N.ar    1  UNL1       -0.2465
      8 C         140.5483  142.6671  163.3146 C.ar    1  UNL1        0.0776
      9 C         141.6869  141.6939  163.2341 C.3     1  UNL1        0.1210
     10 C         142.1733  140.7349  164.2799 C.ar    1  UNL1       -0.0023
     11 C         143.3456  139.9377  163.7897 C.ar    1  UNL1       -0.0017
     12 C         143.9858  138.9179  164.6842 C.ar    1  UNL1        0.0111
     13 C         143.4537  138.6953  166.0689 C.ar    1  UNL1        0.0576
     14 CL        144.0939  137.6755  166.9633 Cl      1  UNL1       -0.0822
     15 C         142.2814  139.4925  166.5591 C.ar    1  UNL1        0.0109
     16 C         141.6412  140.5123  165.6646 C.ar    1  UNL1       -0.0029
     17 N         142.4384  141.6775  161.9361 N.3     1  UNL1       -0.2626
     18 C         142.0363  140.7259  160.8484 C.3     1  UNL1        0.0945
     19 C         142.7880  140.7096  159.5505 C.3     1  UNL1        0.1141
     20 N         143.9416  141.6448  159.3400 N.am    1  UNL1       -0.2432
     21 C         144.6932  141.6285  158.0420 C.2     1  UNL1        0.4047
     22 O         145.8469  142.5637  157.8314 O.2     1  UNL1       -0.2262
     23 C         144.3437  142.5965  160.4275 C.3     1  UNL1        0.1141
     24 C         143.5922  142.6128  161.7255 C.3     1  UNL1        0.0945
     25 O         144.2910  140.6769  156.9545 O.3     1  UNL1       -0.4418
     26 C         144.3992  141.0917  155.5170 C.3     1  UNL1        0.1378
     27 C         145.5901  140.1955  155.3480 C.3     1  UNL1        0.0437
     28 C         143.2083  141.9879  155.6861 C.3     1  UNL1        0.0437
     29 C         144.5073  141.5066  154.0796 C.3     1  UNL1        0.0437
     30 C         140.2055  140.7432  167.7473 C.3     1  UNL1        0.1722
     31 O         139.3605  139.5271  167.9867 O.3     1  UNL1       -0.3742
     32 H         139.0822  139.1541  167.1357 H       1  UNL1        0.2113
     33 C         142.1359  139.5393  170.0869 C.3     1  UNL1        0.1318
     34 N         141.6518  140.9554  169.9852 N.ar    1  UNL1       -0.3082
     35 C         141.9701  142.0667  170.9410 C.ar    1  UNL1        0.1784
     36 N         141.2795  143.3070  170.4563 N.ar    1  UNL1       -0.2226
     37 C         140.5344  142.9622  169.2010 C.ar    1  UNL1        0.1161
     38 C         140.7645  141.5088  168.9098 C.ar    1  UNL1        0.0888
@<TRIPOS>BOND
     1    33    34    1
     2    34    35   ar
     3    35    36   ar
     4    36    37   ar
     5    37    38   ar
     6    38    30    1
     7    30    31    1
     8    30     1    1
     9     1     2    2
    10     2     3    1
    11     3     4   ar
    12     4     5   ar
    13     5     6   ar
    14     6     7   ar
    15     7     8   ar
    16     8     9    1
    17     9    17    1
    18    17    18    1
    19    18    19    1
    20    19    20    1
    21    20    21   am
    22    21    22    2
    23    21    25    1
    24    25    26    1
    25    26    27    1
    26    26    28    1
    27    26    29    1
    28    20    23    1
    29    23    24    1
    30     9    10    1
    31    10    11   ar
    32    11    12   ar
    33    12    13   ar
    34    13    14    1
    35    13    15   ar
    36    15    16   ar
    37    38    34   ar
    38    16     1    1
    39     8     3   ar
    40    24    17    1
    41    16    10   ar
    42    31    32    1
@<TRIPOS>MOLECULE
*****
 38 42 0 0 0
SMALL
GASTEIGER

@<TRIPOS>ATOM
      1 C         141.6201  141.3621  166.6730 C.2     1  UNL1        0.0097
      2 C         142.6900  142.2228  166.0692 C.2     1  UNL1       -0.0004
      3 C         142.8551  142.6445  164.6392 C.ar    1  UNL1        0.0150
      4 C         144.0667  143.5104  164.4595 C.ar    1  UNL1        0.0028
      5 C         144.4142  144.0413  163.1004 C.ar    1  UNL1        0.0207
      6 C         143.5502  143.7063  161.9209 C.ar    1  UNL1        0.0985
      7 N         142.3386  142.8404  162.1005 N.ar    1  UNL1       -0.2465
      8 C         141.9911  142.3095  163.4597 C.ar    1  UNL1        0.0776
      9 C         140.7485  141.4701  163.4189 C.3     1  UNL1        0.1210
     10 C         140.0632  140.7584  164.5475 C.ar    1  UNL1       -0.0023
     11 C         138.8422  140.0274  164.0735 C.ar    1  UNL1       -0.0017
     12 C         138.0091  139.2482  165.0476 C.ar    1  UNL1        0.0111
     13 C         138.3970  139.2001  166.4957 C.ar    1  UNL1        0.0576
     14 CL        137.5639  138.4210  167.4698 Cl      1  UNL1       -0.0822
     15 C         139.6180  139.9312  166.9698 C.ar    1  UNL1        0.0109
     16 C         140.4511  140.7104  165.9957 C.ar    1  UNL1       -0.0029
     17 N         140.1065  141.3230  162.0713 N.3     1  UNL1       -0.2626
     18 C         139.1218  142.3488  161.5935 C.3     1  UNL1        0.0945
     19 C         138.4798  142.2016  160.2459 C.3     1  UNL1        0.1141
     20 N         138.8224  141.0287  159.3760 N.am    1  UNL1       -0.2432
     21 C         138.1804  140.8815  158.0283 C.2     1  UNL1        0.4047
     22 O         138.5229  139.7086  157.1583 O.2     1  UNL1       -0.2262
     23 C         139.8070  140.0029  159.8536 C.3     1  UNL1        0.1141
     24 C         140.4491  140.1500  161.2013 C.3     1  UNL1        0.0945
     25 O         137.1957  141.9074  157.5507 O.3     1  UNL1       -0.4418
     26 C         137.2555  142.4027  156.1360 C.3     1  UNL1        0.1378
     27 C         138.4810  143.2016  156.4675 C.3     1  UNL1        0.0437
     28 C         136.0299  141.6038  155.8046 C.3     1  UNL1        0.0437
     29 C         137.3152  142.8980  154.7214 C.3     1  UNL1        0.0437
     30 C         141.7344  141.1212  168.1490 C.3     1  UNL1        0.1722
     31 O         142.6106  140.0175  168.6632 O.3     1  UNL1       -0.3742
     32 H         143.0274  139.5607  167.9159 H       1  UNL1        0.2113
     33 C         139.9770  140.0709  170.6903 C.3     1  UNL1        0.1318
     34 N         140.1648  141.5011  170.2790 N.ar    1  UNL1       -0.3082
     35 C         139.5777  142.6996  170.9637 C.ar    1  UNL1        0.1784
     36 N         140.0226  143.9233  170.2187 N.ar    1  UNL1       -0.2226
     37 C         140.8847  143.4809  169.0737 C.ar    1  UNL1        0.1161
     38 C         140.9725  141.9839  169.1109 C.ar    1  UNL1        0.0888
@<TRIPOS>BOND
     1    33    34    1
     2    34    35   ar
     3    35    36   ar
     4    36    37   ar
     5    37    38   ar
     6    38    30    1
     7    30    31    1
     8    30     1    1
     9     1     2    2
    10     2     3    1
    11     3     4   ar
    12     4     5   ar
    13     5     6   ar
    14     6     7   ar
    15     7     8   ar
    16     8     9    1
    17     9    17    1
    18    17    18    1
    19    18    19    1
    20    19    20    1
    21    20    21   am
    22    21    22    2
    23    21    25    1
    24    25    26    1
    25    26    27    1
    26    26    28    1
    27    26    29    1
    28    20    23    1
    29    23    24    1
    30     9    10    1
    31    10    11   ar
    32    11    12   ar
    33    12    13   ar
    34    13    14    1
    35    13    15   ar
    36    15    16   ar
    37    38    34   ar
    38    16     1    1
    39     8     3   ar
    40    24    17    1
    41    16    10   ar
    42    31    32    1
@<TRIPOS>MOLECULE
*****
 38 42 0 0 0
SMALL
GASTEIGER

@<TRIPOS>ATOM
      1 C         142.0318  140.5156  166.5981 C.2     1  UNL1        0.0097
      2 C         143.2794  141.0690  165.9757 C.2     1  UNL1       -0.0004
      3 C         143.6181  141.2045  164.5208 C.ar    1  UNL1        0.0150
      4 C         144.9758  141.8124  164.3284 C.ar    1  UNL1        0.0028
      5 C         145.5082  142.0357  162.9440 C.ar    1  UNL1        0.0207
      6 C         144.6829  141.6511  161.7520 C.ar    1  UNL1        0.0985
      7 N         143.3252  141.0432  161.9443 N.ar    1  UNL1       -0.2465
      8 C         142.7928  140.8199  163.3287 C.ar    1  UNL1        0.0776
      9 C         141.4250  140.2049  163.2973 C.3     1  UNL1        0.1210
     10 C         140.5447  139.8226  164.4500 C.ar    1  UNL1       -0.0023
     11 C         139.2481  139.2345  163.9780 C.ar    1  UNL1       -0.0017
     12 C         138.2215  138.7847  164.9749 C.ar    1  UNL1        0.0111
     13 C         138.4915  138.9229  166.4438 C.ar    1  UNL1        0.0576
     14 CL        137.4650  138.4731  167.4407 Cl      1  UNL1       -0.0822
     15 C         139.7882  139.5110  166.9159 C.ar    1  UNL1        0.0109
     16 C         140.8148  139.9609  165.9190 C.ar    1  UNL1       -0.0029
     17 N         140.8633  139.9368  161.9325 N.3     1  UNL1       -0.2626
     18 C         141.1892  138.6543  161.2259 C.3     1  UNL1        0.0945
     19 C         140.6274  138.3863  159.8612 C.3     1  UNL1        0.1141
     20 N         139.7398  139.4005  159.2030 N.am    1  UNL1       -0.2432
     21 C         139.1780  139.1324  157.8383 C.2     1  UNL1        0.4047
     22 O         138.2903  140.1466  157.1800 O.2     1  UNL1       -0.2262
     23 C         139.4138  140.6829  159.9095 C.3     1  UNL1        0.1141
     24 C         139.9755  140.9511  161.2743 C.3     1  UNL1        0.0945
     25 O         139.5040  137.8500  157.1317 O.3     1  UNL1       -0.4418
     26 C         139.9912  137.8781  155.7133 C.3     1  UNL1        0.1378
     27 C         138.7083  137.2466  155.2601 C.3     1  UNL1        0.0437
     28 C         141.2741  138.5096  156.1665 C.3     1  UNL1        0.0437
     29 C         140.4785  137.9061  154.2949 C.3     1  UNL1        0.0437
     30 C         141.9967  140.5171  168.0976 C.3     1  UNL1        0.1722
     31 O         142.7538  139.4751  168.8666 O.3     1  UNL1       -0.3742
     32 H         143.2083  138.8828  168.2473 H       1  UNL1        0.2113
     33 C         140.1980  140.0326  170.7771 C.3     1  UNL1        0.1318
     34 N         140.3776  141.3377  170.0599 N.ar    1  UNL1       -0.3082
     35 C         139.7621  142.6492  170.4483 C.ar    1  UNL1        0.1784
     36 N         140.2083  143.6825  169.4567 N.ar    1  UNL1       -0.2226
     37 C         141.0998  143.0096  168.4555 C.ar    1  UNL1        0.1161
     38 C         141.2044  141.5604  168.8282 C.ar    1  UNL1        0.0888
@<TRIPOS>BOND
     1    33    34    1
     2    34    35   ar
     3    35    36   ar
     4    36    37   ar
     5    37    38   ar
     6    38    30    1
     7    30    31    1
     8    30     1    1
     9     1     2    2
    10     2     3    1
    11     3     4   ar
    12     4     5   ar
    13     5     6   ar
    14     6     7   ar
    15     7     8   ar
    16     8     9    1
    17     9    17    1
    18    17    18    1
    19    18    19    1
    20    19    20    1
    21    20    21   am
    22    21    22    2
    23    21    25    1
    24    25    26    1
    25    26    27    1
    26    26    28    1
    27    26    29    1
    28    20    23    1
    29    23    24    1
    30     9    10    1
    31    10    11   ar
    32    11    12   ar
    33    12    13   ar
    34    13    14    1
    35    13    15   ar
    36    15    16   ar
    37    38    34   ar
    38    16     1    1
    39     8     3   ar
    40    24    17    1
    41    16    10   ar
    42    31    32    1
@<TRIPOS>MOLECULE
*****
 38 42 0 0 0
SMALL
GASTEIGER

@<TRIPOS>ATOM
      1 C         141.1013  141.6761  166.7257 C.2     1  UNL1        0.0097
      2 C         140.1236  142.7316  166.3015 C.2     1  UNL1       -0.0004
      3 C         139.4928  142.9358  164.9560 C.ar    1  UNL1        0.0150
      4 C         138.5664  144.1156  164.9584 C.ar    1  UNL1        0.0028
      5 C         137.8313  144.4943  163.7069 C.ar    1  UNL1        0.0207
      6 C         138.0225  143.6933  162.4532 C.ar    1  UNL1        0.0985
      7 N         138.9488  142.5135  162.4509 N.ar    1  UNL1       -0.2465
      8 C         139.6839  142.1348  163.7023 C.ar    1  UNL1        0.0776
      9 C         140.5531  140.9318  163.4845 C.3     1  UNL1        0.1210
     10 C         141.4458  140.2327  164.4665 C.ar    1  UNL1       -0.0023
     11 C         142.1441  139.0640  163.8369 C.ar    1  UNL1       -0.0017
     12 C         143.0864  138.2265  164.6498 C.ar    1  UNL1        0.0111
     13 C         143.3304  138.5578  166.0922 C.ar    1  UNL1        0.0576
     14 CL        144.2727  137.7203  166.9051 Cl      1  UNL1       -0.0822
     15 C         142.6320  139.7265  166.7219 C.ar    1  UNL1        0.0109
     16 C         141.6898  140.5640  165.9090 C.ar    1  UNL1       -0.0029
     17 N         140.5260  140.3511  162.1017 N.3     1  UNL1       -0.2626
     18 C         141.5636  140.7570  161.0973 C.3     1  UNL1        0.0945
     19 C         141.5364  140.1763  159.7145 C.3     1  UNL1        0.1141
     20 N         140.4718  139.1898  159.3361 N.am    1  UNL1       -0.2432
     21 C         140.4447  138.6090  157.9534 C.2     1  UNL1        0.4047
     22 O         139.3801  137.6225  157.5749 O.2     1  UNL1       -0.2262
     23 C         139.4343  138.7838  160.3405 C.3     1  UNL1        0.1141
     24 C         139.4614  139.3645  161.7233 C.3     1  UNL1        0.0945
     25 O         141.4822  139.0150  156.9490 O.3     1  UNL1       -0.4418
     26 C         142.1348  137.9778  156.0839 C.3     1  UNL1        0.1378
     27 C         141.4515  138.5531  154.8788 C.3     1  UNL1        0.0437
     28 C         142.8181  137.4025  157.2889 C.3     1  UNL1        0.0437
     29 C         142.7874  136.9407  155.2187 C.3     1  UNL1        0.0437
     30 C         141.5499  141.7413  168.1555 C.3     1  UNL1        0.1722
     31 O         142.7469  142.5646  168.5292 O.3     1  UNL1       -0.3742
     32 H         143.1104  142.9859  167.7347 H       1  UNL1        0.2113
     33 C         142.8810  139.9838  170.5615 C.3     1  UNL1        0.1318
     34 N         141.4134  140.1755  170.3176 N.ar    1  UNL1       -0.3082
     35 C         140.3001  139.5930  171.1367 C.ar    1  UNL1        0.1784
     36 N         139.0001  140.0408  170.5371 N.ar    1  UNL1       -0.2226
     37 C         139.3101  140.9001  169.3474 C.ar    1  UNL1        0.1161
     38 C         140.8016  140.9833  169.2117 C.ar    1  UNL1        0.0888
@<TRIPOS>BOND
     1    33    34    1
     2    34    35   ar
     3    35    36   ar
     4    36    37   ar
     5    37    38   ar
     6    38    30    1
     7    30    31    1
     8    30     1    1
     9     1     2    2
    10     2     3    1
    11     3     4   ar
    12     4     5   ar
    13     5     6   ar
    14     6     7   ar
    15     7     8   ar
    16     8     9    1
    17     9    17    1
    18    17    18    1
    19    18    19    1
    20    19    20    1
    21    20    21   am
    22    21    22    2
    23    21    25    1
    24    25    26    1
    25    26    27    1
    26    26    28    1
    27    26    29    1
    28    20    23    1
    29    23    24    1
    30     9    10    1
    31    10    11   ar
    32    11    12   ar
    33    12    13   ar
    34    13    14    1
    35    13    15   ar
    36    15    16   ar
    37    38    34   ar
    38    16     1    1
    39     8     3   ar
    40    24    17    1
    41    16    10   ar
    42    31    32    1
@<TRIPOS>MOLECULE
*****
 38 42 0 0 0
SMALL
GASTEIGER

@<TRIPOS>ATOM
      1 C         141.4073  141.9616  166.2391 C.2     1  UNL1        0.0097
      2 C         140.6752  143.1319  165.6523 C.2     1  UNL1       -0.0004
      3 C         140.5169  143.5079  164.2088 C.ar    1  UNL1        0.0150
      4 C         139.7049  144.7595  164.0543 C.ar    1  UNL1        0.0028
      5 C         139.4276  145.3096  162.6867 C.ar    1  UNL1        0.0207
      6 C         139.9624  144.6081  161.4735 C.ar    1  UNL1        0.0985
      7 N         140.7744  143.3564  161.6279 N.ar    1  UNL1       -0.2465
      8 C         141.0517  142.8063  162.9956 C.ar    1  UNL1        0.0776
      9 C         141.8768  141.5555  162.9263 C.3     1  UNL1        0.1210
     10 C         142.3710  140.6974  164.0530 C.ar    1  UNL1       -0.0023
     11 C         143.1671  139.5318  163.5457 C.ar    1  UNL1       -0.0017
     12 C         143.7543  138.5468  164.5127 C.ar    1  UNL1        0.0111
     13 C         143.5454  138.7276  165.9870 C.ar    1  UNL1        0.0576
     14 CL        144.1325  137.7426  166.9540 Cl      1  UNL1       -0.0822
     15 C         142.7492  139.8933  166.4944 C.ar    1  UNL1        0.0109
     16 C         142.1620  140.8782  165.5274 C.ar    1  UNL1       -0.0029
     17 N         142.2583  141.1031  161.5480 N.3     1  UNL1       -0.2626
     18 C         141.3301  140.2238  160.7635 C.3     1  UNL1        0.0945
     19 C         141.7116  139.7714  159.3852 C.3     1  UNL1        0.1141
     20 N         143.0211  140.1981  158.7913 N.am    1  UNL1       -0.2432
     21 C         143.4026  139.7457  157.4130 C.2     1  UNL1        0.4047
     22 O         144.7122  140.1724  156.8191 O.2     1  UNL1       -0.2262
     23 C         143.9494  141.0774  159.5758 C.3     1  UNL1        0.1141
     24 C         143.5679  141.5298  160.9541 C.3     1  UNL1        0.0945
     25 O         142.4744  138.8664  156.6286 O.3     1  UNL1       -0.4418
     26 C         142.9770  137.5816  156.0398 C.3     1  UNL1        0.1378
     27 C         142.8124  136.9077  157.3698 C.3     1  UNL1        0.0437
     28 C         143.1416  138.2555  154.7098 C.3     1  UNL1        0.0437
     29 C         143.4796  136.2968  155.4510 C.3     1  UNL1        0.0437
     30 C         141.3813  141.8616  167.7355 C.3     1  UNL1        0.1722
     31 O         142.4640  142.5064  168.5493 O.3     1  UNL1       -0.3742
     32 H         143.0967  142.9429  167.9576 H       1  UNL1        0.2113
     33 C         140.1552  142.5274  170.6855 C.3     1  UNL1        0.1318
     34 N         139.7091  141.4227  169.7742 N.ar    1  UNL1       -0.3082
     35 C         138.6212  140.4301  170.0588 C.ar    1  UNL1        0.1784
     36 N         138.5124  139.5105  168.8787 N.ar    1  UNL1       -0.2226
     37 C         139.5330  139.9348  167.8648 C.ar    1  UNL1        0.1161
     38 C         140.2727  141.1166  168.4182 C.ar    1  UNL1        0.0888
@<TRIPOS>BOND
     1    33    34    1
     2    34    35   ar
     3    35    36   ar
     4    36    37   ar
     5    37    38   ar
     6    38    30    1
     7    30    31    1
     8    30     1    1
     9     1     2    2
    10     2     3    1
    11     3     4   ar
    12     4     5   ar
    13     5     6   ar
    14     6     7   ar
    15     7     8   ar
    16     8     9    1
    17     9    17    1
    18    17    18    1
    19    18    19    1
    20    19    20    1
    21    20    21   am
    22    21    22    2
    23    21    25    1
    24    25    26    1
    25    26    27    1
    26    26    28    1
    27    26    29    1
    28    20    23    1
    29    23    24    1
    30     9    10    1
    31    10    11   ar
    32    11    12   ar
    33    12    13   ar
    34    13    14    1
    35    13    15   ar
    36    15    16   ar
    37    38    34   ar
    38    16     1    1
    39     8     3   ar
    40    24    17    1
    41    16    10   ar
    42    31    32    1
@<TRIPOS>MOLECULE
*****
 38 42 0 0 0
SMALL
GASTEIGER

@<TRIPOS>ATOM
      1 C         141.4348  141.4421  165.3193 C.2     1  UNL1        0.0097
      2 C         142.2600  140.3232  164.7562 C.2     1  UNL1       -0.0004
      3 C         142.2043  139.7184  163.3847 C.ar    1  UNL1        0.0150
      4 C         143.2079  138.6142  163.2315 C.ar    1  UNL1        0.0028
      5 C         143.3167  137.8748  161.9309 C.ar    1  UNL1        0.0207
      6 C         142.4219  138.2396  160.7836 C.ar    1  UNL1        0.0985
      7 N         141.4183  139.3438  160.9369 N.ar    1  UNL1       -0.2465
      8 C         141.3095  140.0832  162.2374 C.ar    1  UNL1        0.0776
      9 C         140.2495  141.1428  162.1784 C.3     1  UNL1        0.1210
     10 C         139.8224  142.0994  163.2519 C.ar    1  UNL1       -0.0023
     11 C         138.7213  143.0005  162.7769 C.ar    1  UNL1       -0.0017
     12 C         138.1477  144.0346  163.6996 C.ar    1  UNL1        0.0111
     13 C         138.6752  144.1678  165.0974 C.ar    1  UNL1        0.0576
     14 CL        138.1017  145.2020  166.0201 Cl      1  UNL1       -0.0822
     15 C         139.7764  143.2668  165.5725 C.ar    1  UNL1        0.0109
     16 C         140.3500  142.2326  164.6498 C.ar    1  UNL1       -0.0029
     17 N         139.5200  141.2616  160.8731 N.3     1  UNL1       -0.2626
     18 C         138.4260  140.2928  160.5343 C.3     1  UNL1        0.0945
     19 C         137.6967  140.4116  159.2290 C.3     1  UNL1        0.1141
     20 N         138.0611  141.4992  158.2624 N.am    1  UNL1       -0.2432
     21 C         137.3317  141.6180  156.9571 C.2     1  UNL1        0.4047
     22 O         137.6962  142.7056  155.9905 O.2     1  UNL1       -0.2262
     23 C         139.1551  142.4680  158.6011 C.3     1  UNL1        0.1141
     24 C         139.8845  142.3492  159.9064 C.3     1  UNL1        0.0945
     25 O         136.2378  140.6492  156.6184 O.3     1  UNL1       -0.4418
     26 C         135.8599  140.4155  155.1857 C.3     1  UNL1        0.1378
     27 C         134.5927  141.1908  155.3936 C.3     1  UNL1        0.0437
     28 C         137.1271  139.6403  154.9779 C.3     1  UNL1        0.0437
     29 C         135.4820  140.1819  153.7530 C.3     1  UNL1        0.0437
     30 C         141.7340  141.8205  166.7396 C.3     1  UNL1        0.1722
     31 O         142.8897  142.7261  167.0470 O.3     1  UNL1       -0.3742
     32 H         143.3350  142.9736  166.2215 H       1  UNL1        0.2113
     33 C         140.5775  143.5499  169.2538 C.3     1  UNL1        0.1318
     34 N         140.3459  142.0884  169.0082 N.ar    1  UNL1       -0.3082
     35 C         139.5420  141.1652  169.8750 C.ar    1  UNL1        0.1784
     36 N         139.5768  139.7997  169.2551 N.ar    1  UNL1       -0.2226
     37 C         140.4021  139.8790  168.0052 C.ar    1  UNL1        0.1161
     38 C         140.8774  141.2935  167.8525 C.ar    1  UNL1        0.0888
@<TRIPOS>BOND
     1    33    34    1
     2    34    35   ar
     3    35    36   ar
     4    36    37   ar
     5    37    38   ar
     6    38    30    1
     7    30    31    1
     8    30     1    1
     9     1     2    2
    10     2     3    1
    11     3     4   ar
    12     4     5   ar
    13     5     6   ar
    14     6     7   ar
    15     7     8   ar
    16     8     9    1
    17     9    17    1
    18    17    18    1
    19    18    19    1
    20    19    20    1
    21    20    21   am
    22    21    22    2
    23    21    25    1
    24    25    26    1
    25    26    27    1
    26    26    28    1
    27    26    29    1
    28    20    23    1
    29    23    24    1
    30     9    10    1
    31    10    11   ar
    32    11    12   ar
    33    12    13   ar
    34    13    14    1
    35    13    15   ar
    36    15    16   ar
    37    38    34   ar
    38    16     1    1
    39     8     3   ar
    40    24    17    1
    41    16    10   ar
    42    31    32    1
@<TRIPOS>MOLECULE
*****
 38 42 0 0 0
SMALL
GASTEIGER

@<TRIPOS>ATOM
      1 C         141.6081  141.5545  165.0516 C.2     1  UNL1        0.0097
      2 C         142.5042  140.5617  164.3725 C.2     1  UNL1       -0.0004
      3 C         142.7791  140.3992  162.9069 C.ar    1  UNL1        0.0150
      4 C         143.7425  139.2783  162.6510 C.ar    1  UNL1        0.0028
      5 C         144.1524  138.9477  161.2465 C.ar    1  UNL1        0.0207
      6 C         143.5990  139.7379  160.0980 C.ar    1  UNL1        0.0985
      7 N         142.6356  140.8588  160.3539 N.ar    1  UNL1       -0.2465
      8 C         142.2257  141.1894  161.7583 C.ar    1  UNL1        0.0776
      9 C         141.2607  142.3373  161.7918 C.3     1  UNL1        0.1210
     10 C         140.6107  142.9785  162.9819 C.ar    1  UNL1       -0.0023
     11 C         139.7068  144.1035  162.5730 C.ar    1  UNL1       -0.0017
     12 C         138.9575  144.8801  163.6148 C.ar    1  UNL1        0.0111
     13 C         139.1121  144.5318  165.0655 C.ar    1  UNL1        0.0576
     14 CL        138.3628  145.3084  166.1073 Cl      1  UNL1       -0.0822
     15 C         140.0161  143.4068  165.4745 C.ar    1  UNL1        0.0109
     16 C         140.7654  142.6301  164.4327 C.ar    1  UNL1       -0.0029
     17 N         140.8975  142.9212  160.4586 N.3     1  UNL1       -0.2626
     18 C         141.7168  144.0367  159.8801 C.3     1  UNL1        0.0945
     19 C         141.3535  144.6206  158.5470 C.3     1  UNL1        0.1141
     20 N         140.1712  144.0891  157.7924 N.am    1  UNL1       -0.2432
     21 C         139.8080  144.6729  156.4593 C.2     1  UNL1        0.4047
     22 O         138.6257  144.1415  155.7047 O.2     1  UNL1       -0.2262
     23 C         139.3520  142.9736  158.3709 C.3     1  UNL1        0.1141
     24 C         139.7151  142.3897  159.7040 C.3     1  UNL1        0.0945
     25 O         140.6273  145.7884  155.8809 O.3     1  UNL1       -0.4418
     26 C         139.9487  146.9749  155.2630 C.3     1  UNL1        0.1378
     27 C         139.3096  147.2960  156.5815 C.3     1  UNL1        0.0437
     28 C         140.5879  146.6538  153.9445 C.3     1  UNL1        0.0437
     29 C         139.2702  148.1614  154.6451 C.3     1  UNL1        0.0437
     30 C         141.5464  141.4592  166.5473 C.3     1  UNL1        0.1722
     31 O         142.5979  142.1245  167.3852 O.3     1  UNL1       -0.3742
     32 H         143.2380  142.5692  166.8077 H       1  UNL1        0.2113
     33 C         140.4112  141.9495  169.5672 C.3     1  UNL1        0.1318
     34 N         139.9116  140.9240  168.5932 N.ar    1  UNL1       -0.3082
     35 C         138.8025  139.9439  168.8363 C.ar    1  UNL1        0.1784
     36 N         138.6388  139.1127  167.5984 N.ar    1  UNL1       -0.2226
     37 C         139.6467  139.5792  166.5902 C.ar    1  UNL1        0.1161
     38 C         140.4334  140.6987  167.2051 C.ar    1  UNL1        0.0888
@<TRIPOS>BOND
     1    33    34    1
     2    34    35   ar
     3    35    36   ar
     4    36    37   ar
     5    37    38   ar
     6    38    30    1
     7    30    31    1
     8    30     1    1
     9     1     2    2
    10     2     3    1
    11     3     4   ar
    12     4     5   ar
    13     5     6   ar
    14     6     7   ar
    15     7     8   ar
    16     8     9    1
    17     9    17    1
    18    17    18    1
    19    18    19    1
    20    19    20    1
    21    20    21   am
    22    21    22    2
    23    21    25    1
    24    25    26    1
    25    26    27    1
    26    26    28    1
    27    26    29    1
    28    20    23    1
    29    23    24    1
    30     9    10    1
    31    10    11   ar
    32    11    12   ar
    33    12    13   ar
    34    13    14    1
    35    13    15   ar
    36    15    16   ar
    37    38    34   ar
    38    16     1    1
    39     8     3   ar
    40    24    17    1
    41    16    10   ar
    42    31    32    1
@<TRIPOS>MOLECULE
*****
 38 42 0 0 0
SMALL
GASTEIGER

@<TRIPOS>ATOM
      1 C         141.3491  141.9972  166.1878 C.2     1  UNL1        0.0097
      2 C         140.5868  143.1718  165.6501 C.2     1  UNL1       -0.0004
      3 C         140.3761  143.5752  164.2208 C.ar    1  UNL1        0.0150
      4 C         139.5479  144.8217  164.1195 C.ar    1  UNL1        0.0028
      5 C         139.2193  145.3965  162.7736 C.ar    1  UNL1        0.0207
      6 C         139.7190  144.7249  161.5289 C.ar    1  UNL1        0.0985
      7 N         140.5472  143.4784  161.6302 N.ar    1  UNL1       -0.2465
      8 C         140.8757  142.9036  162.9761 C.ar    1  UNL1        0.0776
      9 C         141.7095  141.6627  162.8534 C.3     1  UNL1        0.1210
     10 C         142.2495  140.7869  163.9449 C.ar    1  UNL1       -0.0023
     11 C         143.0385  139.6396  163.3873 C.ar    1  UNL1       -0.0017
     12 C         143.6672  138.6412  164.3135 C.ar    1  UNL1        0.0111
     13 C         143.5068  138.7901  165.7974 C.ar    1  UNL1        0.0576
     14 CL        144.1355  137.7917  166.7236 Cl      1  UNL1       -0.0822
     15 C         142.7177  139.9374  166.3551 C.ar    1  UNL1        0.0109
     16 C         142.0890  140.9358  165.4289 C.ar    1  UNL1       -0.0029
     17 N         142.0480  141.2418  161.4540 N.3     1  UNL1       -0.2626
     18 C         143.3328  141.6933  160.8250 C.3     1  UNL1        0.0945
     19 C         143.6712  141.2724  159.4256 C.3     1  UNL1        0.1141
     20 N         142.7250  140.4002  158.6552 N.am    1  UNL1       -0.2432
     21 C         143.0634  139.9793  157.2558 C.2     1  UNL1        0.4047
     22 O         142.1172  139.1070  156.4852 O.2     1  UNL1       -0.2262
     23 C         141.4402  139.9487  159.2840 C.3     1  UNL1        0.1141
     24 C         141.1017  140.3695  160.6835 C.3     1  UNL1        0.0945
     25 O         144.3482  140.4308  156.6269 O.3     1  UNL1       -0.4418
     26 C         144.4583  140.5301  155.1342 C.3     1  UNL1        0.1378
     27 C         145.1713  139.2108  155.0991 C.3     1  UNL1        0.0437
     28 C         143.7454  141.8494  155.1693 C.3     1  UNL1        0.0437
     29 C         144.5684  140.6293  153.6415 C.3     1  UNL1        0.0437
     30 C         141.3748  141.8667  167.6818 C.3     1  UNL1        0.1722
     31 O         142.4972  142.4761  168.4687 O.3     1  UNL1       -0.3742
     32 H         143.1161  142.9137  167.8634 H       1  UNL1        0.2113
     33 C         140.1652  142.5854  170.6263 C.3     1  UNL1        0.1318
     34 N         139.7223  141.4572  169.7425 N.ar    1  UNL1       -0.3082
     35 C         138.6456  140.4614  170.0570 C.ar    1  UNL1        0.1784
     36 N         138.5361  139.5155  168.8979 N.ar    1  UNL1       -0.2226
     37 C         139.5452  139.9268  167.8671 C.ar    1  UNL1        0.1161
     38 C         140.2783  141.1269  168.3891 C.ar    1  UNL1        0.0888
@<TRIPOS>BOND
     1    33    34    1
     2    34    35   ar
     3    35    36   ar
     4    36    37   ar
     5    37    38   ar
     6    38    30    1
     7    30    31    1
     8    30     1    1
     9     1     2    2
    10     2     3    1
    11     3     4   ar
    12     4     5   ar
    13     5     6   ar
    14     6     7   ar
    15     7     8   ar
    16     8     9    1
    17     9    17    1
    18    17    18    1
    19    18    19    1
    20    19    20    1
    21    20    21   am
    22    21    22    2
    23    21    25    1
    24    25    26    1
    25    26    27    1
    26    26    28    1
    27    26    29    1
    28    20    23    1
    29    23    24    1
    30     9    10    1
    31    10    11   ar
    32    11    12   ar
    33    12    13   ar
    34    13    14    1
    35    13    15   ar
    36    15    16   ar
    37    38    34   ar
    38    16     1    1
    39     8     3   ar
    40    24    17    1
    41    16    10   ar
    42    31    32    1
@<TRIPOS>MOLECULE
*****
 38 42 0 0 0
SMALL
GASTEIGER

@<TRIPOS>ATOM
      1 C         141.0190  141.1161  165.4209 C.2     1  UNL1        0.0097
      2 C         139.9603  140.1706  164.9361 C.2     1  UNL1       -0.0004
      3 C         139.7197  139.6708  163.5424 C.ar    1  UNL1        0.0150
      4 C         138.5498  138.7334  163.4907 C.ar    1  UNL1        0.0028
      5 C         138.1387  138.1183  162.1858 C.ar    1  UNL1        0.0207
      6 C         138.8975  138.4407  160.9327 C.ar    1  UNL1        0.0985
      7 N         140.0673  139.3781  160.9844 N.ar    1  UNL1       -0.2465
      8 C         140.4784  139.9931  162.2892 C.ar    1  UNL1        0.0776
      9 C         141.6651  140.8949  162.1203 C.3     1  UNL1        0.1210
     10 C         142.3862  141.6971  163.1627 C.ar    1  UNL1       -0.0023
     11 C         143.5273  142.4683  162.5686 C.ar    1  UNL1       -0.0017
     12 C         144.3808  143.3380  163.4433 C.ar    1  UNL1        0.0111
     13 C         144.0933  143.4365  164.9121 C.ar    1  UNL1        0.0576
     14 CL        144.9468  144.3062  165.7868 Cl      1  UNL1       -0.0822
     15 C         142.9521  142.6652  165.5063 C.ar    1  UNL1        0.0109
     16 C         142.0986  141.7955  164.6316 C.ar    1  UNL1       -0.0029
     17 N         142.2017  141.0098  160.7243 N.3     1  UNL1       -0.2626
     18 C         143.3468  140.1449  160.2873 C.3     1  UNL1        0.0945
     19 C         143.8833  140.2598  158.8913 C.3     1  UNL1        0.1141
     20 N         143.2749  141.2394  157.9322 N.am    1  UNL1       -0.2432
     21 C         143.8115  141.3544  156.5362 C.2     1  UNL1        0.4047
     22 O         143.2031  142.3341  155.5770 O.2     1  UNL1       -0.2262
     23 C         142.1299  142.1044  158.3691 C.3     1  UNL1        0.1141
     24 C         141.5933  141.9895  159.7651 C.3     1  UNL1        0.0945
     25 O         144.9565  140.4894  156.0993 O.3     1  UNL1       -0.4418
     26 C         146.0460  141.0637  155.2430 C.3     1  UNL1        0.1378
     27 C         145.5699  140.2389  154.0841 C.3     1  UNL1        0.0437
     28 C         146.5222  141.8884  156.4020 C.3     1  UNL1        0.0437
     29 C         147.1356  141.6379  154.3868 C.3     1  UNL1        0.0437
     30 C         140.9949  141.4229  166.8889 C.3     1  UNL1        0.1722
     31 O         140.3726  142.6969  167.3788 O.3     1  UNL1       -0.3742
     32 H         140.0364  143.2039  166.6233 H       1  UNL1        0.2113
     33 C         139.8342  140.7355  169.8604 C.3     1  UNL1        0.1318
     34 N         141.0596  140.1399  169.2330 N.ar    1  UNL1       -0.3082
     35 C         141.9665  139.1237  169.8612 C.ar    1  UNL1        0.1784
     36 N         143.0606  138.8115  168.8837 N.ar    1  UNL1       -0.2226
     37 C         142.8298  139.6348  167.6512 C.ar    1  UNL1        0.1161
     38 C         141.5930  140.4558  167.8671 C.ar    1  UNL1        0.0888
@<TRIPOS>BOND
     1    33    34    1
     2    34    35   ar
     3    35    36   ar
     4    36    37   ar
     5    37    38   ar
     6    38    30    1
     7    30    31    1
     8    30     1    1
     9     1     2    2
    10     2     3    1
    11     3     4   ar
    12     4     5   ar
    13     5     6   ar
    14     6     7   ar
    15     7     8   ar
    16     8     9    1
    17     9    17    1
    18    17    18    1
    19    18    19    1
    20    19    20    1
    21    20    21   am
    22    21    22    2
    23    21    25    1
    24    25    26    1
    25    26    27    1
    26    26    28    1
    27    26    29    1
    28    20    23    1
    29    23    24    1
    30     9    10    1
    31    10    11   ar
    32    11    12   ar
    33    12    13   ar
    34    13    14    1
    35    13    15   ar
    36    15    16   ar
    37    38    34   ar
    38    16     1    1
    39     8     3   ar
    40    24    17    1
    41    16    10   ar
    42    31    32    1
