@<TRIPOS>MOLECULE
*****
 22 24 0 0 0
SMALL
GASTEIGER

@<TRIPOS>ATOM
      1 C         143.1694  138.5483  166.5260 C.2     1  UNL1        0.2487
      2 O         144.1688  137.6499  167.1925 O.2     1  UNL1       -0.2699
      3 N         142.4745  139.6155  167.3185 N.am    1  UNL1       -0.2763
      4 C         143.7704  138.9866  164.0366 C.ar    1  UNL1       -0.0178
      5 C         143.4659  138.8177  162.5777 C.ar    1  UNL1       -0.0041
      6 C         142.2560  138.0416  162.1489 C.ar    1  UNL1       -0.0003
      7 C         141.3506  137.4344  163.1792 C.ar    1  UNL1        0.0001
      8 C         141.6551  137.6033  164.6382 C.ar    1  UNL1        0.0042
      9 C         142.8650  138.3794  165.0669 C.ar    1  UNL1        0.0496
     10 C         145.3779  141.0031  163.7217 C.3     1  UNL1        0.0050
     11 C         144.9803  139.7627  164.4654 C.3     1  UNL1        0.0265
     12 C         141.4752  140.5139  166.6520 C.3     1  UNL1        0.0927
     13 C         141.7895  141.7495  165.8618 C.3     1  UNL1        0.0383
     14 C         140.4947  142.3337  165.3801 C.3     1  UNL1        0.0704
     15 N         139.3800  141.4591  165.8726 N.3     1  UNL1       -0.2960
     16 C         139.9860  140.3344  166.6587 C.3     1  UNL1        0.0887
     17 H         138.8573  141.0854  165.0804 H       1  UNL1        0.1233
     18 C         142.7790  139.7844  168.7776 C.3     1  UNL1        0.0936
     19 C         142.7100  141.1449  169.4056 C.3     1  UNL1        0.0199
     20 C         143.6696  142.2854  169.5738 C.3     1  UNL1        0.0017
     21 C         142.6123  143.0689  170.2937 C.3     1  UNL1        0.0001
     22 C         141.6527  141.9284  170.1255 C.3     1  UNL1        0.0017
@<TRIPOS>BOND
     1    10    11    1
     2    11     4    1
     3     4     5   ar
     4     5     6   ar
     5     6     7   ar
     6     7     8   ar
     7     8     9   ar
     8     9     1    1
     9     1     2    2
    10     1     3   am
    11     3    18    1
    12    18    19    1
    13    19    20    1
    14    20    21    1
    15    21    22    1
    16    12     3    1
    17    12    13    1
    18    13    14    1
    19    14    15    1
    20    15    16    1
    21     9     4   ar
    22    22    19    1
    23    16    12    1
    24    15    17    1
@<TRIPOS>MOLECULE
*****
 22 24 0 0 0
SMALL
GASTEIGER

@<TRIPOS>ATOM
      1 C         139.6901  140.4710  168.0411 C.2     1  UNL1        0.2487
      2 O         138.8742  139.4670  168.8002 O.2     1  UNL1       -0.2699
      3 N         139.4439  140.6846  166.5770 N.am    1  UNL1       -0.2763
      4 C         142.1106  140.6637  168.9655 C.ar    1  UNL1       -0.0178
      5 C         143.1727  141.4540  169.6706 C.ar    1  UNL1       -0.0041
      6 C         142.8767  142.8420  170.1563 C.ar    1  UNL1       -0.0003
      7 C         141.5185  143.4396  169.9370 C.ar    1  UNL1        0.0001
      8 C         140.4563  142.6492  169.2319 C.ar    1  UNL1        0.0042
      9 C         140.7524  141.2613  168.7462 C.ar    1  UNL1        0.0496
     10 C         143.0454  139.0710  167.1381 C.3     1  UNL1        0.0050
     11 C         142.4066  139.2757  168.4797 C.3     1  UNL1        0.0265
     12 C         140.2599  141.6886  165.8179 C.3     1  UNL1        0.0927
     13 C         141.5529  141.4178  165.1074 C.3     1  UNL1        0.0383
     14 C         142.0183  142.7015  164.4864 C.3     1  UNL1        0.0704
     15 N         141.0129  143.7656  164.8130 N.3     1  UNL1       -0.2960
     16 C         139.9261  143.1396  165.6359 C.3     1  UNL1        0.0887
     17 H         140.6196  144.1462  163.9523 H       1  UNL1        0.1233
     18 C         138.3817  139.8943  165.8719 C.3     1  UNL1        0.0936
     19 C         138.7559  138.9605  164.7592 C.3     1  UNL1        0.0199
     20 C         138.5602  138.9502  163.2721 C.3     1  UNL1        0.0017
     21 C         139.2851  137.6398  163.1858 C.3     1  UNL1        0.0001
     22 C         139.4808  137.6501  164.6729 C.3     1  UNL1        0.0017
@<TRIPOS>BOND
     1    10    11    1
     2    11     4    1
     3     4     5   ar
     4     5     6   ar
     5     6     7   ar
     6     7     8   ar
     7     8     9   ar
     8     9     1    1
     9     1     2    2
    10     1     3   am
    11     3    18    1
    12    18    19    1
    13    19    20    1
    14    20    21    1
    15    21    22    1
    16    12     3    1
    17    12    13    1
    18    13    14    1
    19    14    15    1
    20    15    16    1
    21     9     4   ar
    22    22    19    1
    23    16    12    1
    24    15    17    1
@<TRIPOS>MOLECULE
*****
 22 24 0 0 0
SMALL
GASTEIGER

@<TRIPOS>ATOM
      1 C         139.2353  139.4247  166.8699 C.2     1  UNL1        0.2487
      2 O         138.1334  139.2547  167.8733 O.2     1  UNL1       -0.2699
      3 N         140.5791  139.9259  167.3093 N.am    1  UNL1       -0.2763
      4 C         138.5465  140.1642  164.4764 C.ar    1  UNL1       -0.0178
      5 C         138.3046  139.8329  163.0336 C.ar    1  UNL1       -0.0041
      6 C         138.5098  138.4309  162.5414 C.ar    1  UNL1       -0.0003
      7 C         138.9568  137.3601  163.4920 C.ar    1  UNL1        0.0001
      8 C         139.1986  137.6914  164.9348 C.ar    1  UNL1        0.0042
      9 C         138.9935  139.0935  165.4270 C.ar    1  UNL1        0.0496
     10 C         137.6374  142.5693  164.1036 C.3     1  UNL1        0.0050
     11 C         138.3413  141.5662  164.9686 C.3     1  UNL1        0.0265
     12 C         141.6810  140.0959  166.3058 C.3     1  UNL1        0.0927
     13 C         142.0052  141.3546  165.5570 C.3     1  UNL1        0.0383
     14 C         143.1767  141.0737  164.6635 C.3     1  UNL1        0.0704
     15 N         143.5767  139.6414  164.8600 N.3     1  UNL1       -0.2960
     16 C         142.6522  139.0371  165.8750 C.3     1  UNL1        0.0887
     17 H         144.5385  139.5936  165.1960 H       1  UNL1        0.1233
     18 C         140.8209  140.2572  168.7522 C.3     1  UNL1        0.0936
     19 C         140.6151  141.6590  169.2445 C.3     1  UNL1        0.0199
     20 C         140.5596  143.0123  168.5998 C.3     1  UNL1        0.0017
     21 C         140.3241  143.6416  169.9409 C.3     1  UNL1        0.0001
     22 C         140.3796  142.2883  170.5856 C.3     1  UNL1        0.0017
@<TRIPOS>BOND
     1    10    11    1
     2    11     4    1
     3     4     5   ar
     4     5     6   ar
     5     6     7   ar
     6     7     8   ar
     7     8     9   ar
     8     9     1    1
     9     1     2    2
    10     1     3   am
    11     3    18    1
    12    18    19    1
    13    19    20    1
    14    20    21    1
    15    21    22    1
    16    12     3    1
    17    12    13    1
    18    13    14    1
    19    14    15    1
    20    15    16    1
    21     9     4   ar
    22    22    19    1
    23    16    12    1
    24    15    17    1
@<TRIPOS>MOLECULE
*****
 22 24 0 0 0
SMALL
GASTEIGER

@<TRIPOS>ATOM
      1 C         141.5554  140.0088  166.8916 C.2     1  UNL1        0.2487
      2 O         142.0987  139.3834  168.1420 O.2     1  UNL1       -0.2699
      3 N         141.4508  141.5012  166.7838 N.am    1  UNL1       -0.2763
      4 C         139.6773  138.7381  165.6234 C.ar    1  UNL1       -0.0178
      5 C         139.2385  137.8711  164.4808 C.ar    1  UNL1       -0.0041
      6 C         140.2389  137.4076  163.4637 C.ar    1  UNL1       -0.0003
      7 C         141.6781  137.8111  163.5893 C.ar    1  UNL1        0.0001
      8 C         142.1169  138.6782  164.7319 C.ar    1  UNL1        0.0042
      9 C         141.1165  139.1417  165.7489 C.ar    1  UNL1        0.0496
     10 C         137.5326  138.3120  167.0264 C.3     1  UNL1        0.0050
     11 C         138.6769  139.2016  166.6404 C.3     1  UNL1        0.0265
     12 C         140.9074  142.1266  165.5333 C.3     1  UNL1        0.0927
     13 C         139.4925  142.5736  165.3141 C.3     1  UNL1        0.0383
     14 C         139.3941  143.1381  163.9279 C.3     1  UNL1        0.0704
     15 N         140.7483  143.0400  163.2903 N.3     1  UNL1       -0.2960
     16 C         141.6836  142.4149  164.2825 C.3     1  UNL1        0.0887
     17 H         141.0813  143.9710  163.0398 H       1  UNL1        0.1233
     18 C         141.8897  142.3683  167.9264 C.3     1  UNL1        0.0936
     19 C         140.9613  142.6186  169.0777 C.3     1  UNL1        0.0199
     20 C         140.5363  143.8299  169.8537 C.3     1  UNL1        0.0017
     21 C         139.6483  142.9724  170.7059 C.3     1  UNL1        0.0001
     22 C         140.0733  141.7611  169.9299 C.3     1  UNL1        0.0017
@<TRIPOS>BOND
     1    10    11    1
     2    11     4    1
     3     4     5   ar
     4     5     6   ar
     5     6     7   ar
     6     7     8   ar
     7     8     9   ar
     8     9     1    1
     9     1     2    2
    10     1     3   am
    11     3    18    1
    12    18    19    1
    13    19    20    1
    14    20    21    1
    15    21    22    1
    16    12     3    1
    17    12    13    1
    18    13    14    1
    19    14    15    1
    20    15    16    1
    21     9     4   ar
    22    22    19    1
    23    16    12    1
    24    15    17    1
@<TRIPOS>MOLECULE
*****
 22 24 0 0 0
SMALL
GASTEIGER

@<TRIPOS>ATOM
      1 C         143.3622  138.8528  166.2647 C.2     1  UNL1        0.2487
      2 O         144.0968  137.7719  167.0010 O.2     1  UNL1       -0.2699
      3 N         142.6493  139.9293  167.0282 N.am    1  UNL1       -0.2763
      4 C         142.2595  138.1229  164.0283 C.ar    1  UNL1       -0.0178
      5 C         142.2379  138.1272  162.5285 C.ar    1  UNL1       -0.0041
      6 C         143.2971  138.8657  161.7652 C.ar    1  UNL1       -0.0003
      7 C         144.3780  139.5999  162.5018 C.ar    1  UNL1        0.0001
      8 C         144.3997  139.5956  164.0016 C.ar    1  UNL1        0.0042
      9 C         143.3404  138.8571  164.7648 C.ar    1  UNL1        0.0496
     10 C         139.7510  137.6400  164.5016 C.3     1  UNL1        0.0050
     11 C         141.2003  137.3843  164.7916 C.3     1  UNL1        0.0265
     12 C         141.9147  141.0101  166.2919 C.3     1  UNL1        0.0927
     13 C         140.4575  141.0009  165.9361 C.3     1  UNL1        0.0383
     14 C         140.1505  142.2750  165.2064 C.3     1  UNL1        0.0704
     15 N         141.4179  143.0716  165.1112 N.3     1  UNL1       -0.2960
     16 C         142.5082  142.2899  165.7821 C.3     1  UNL1        0.0887
     17 H         141.2980  143.9701  165.5791 H       1  UNL1        0.1233
     18 C         142.6710  139.9249  168.5281 C.3     1  UNL1        0.0936
     19 C         142.6585  141.2216  169.2821 C.3     1  UNL1        0.0199
     20 C         143.7015  142.2143  169.7023 C.3     1  UNL1        0.0017
     21 C         142.6408  143.0553  170.3484 C.3     1  UNL1        0.0001
     22 C         141.5977  142.0626  169.9282 C.3     1  UNL1        0.0017
@<TRIPOS>BOND
     1    10    11    1
     2    11     4    1
     3     4     5   ar
     4     5     6   ar
     5     6     7   ar
     6     7     8   ar
     7     8     9   ar
     8     9     1    1
     9     1     2    2
    10     1     3   am
    11     3    18    1
    12    18    19    1
    13    19    20    1
    14    20    21    1
    15    21    22    1
    16    12     3    1
    17    12    13    1
    18    13    14    1
    19    14    15    1
    20    15    16    1
    21     9     4   ar
    22    22    19    1
    23    16    12    1
    24    15    17    1
@<TRIPOS>MOLECULE
*****
 22 24 0 0 0
SMALL
GASTEIGER

@<TRIPOS>ATOM
      1 C         141.3395  140.6970  163.4393 C.2     1  UNL1        0.2487
      2 O         142.1955  139.5156  163.7876 O.2     1  UNL1       -0.2699
      3 N         139.8569  140.5295  163.2847 N.am    1  UNL1       -0.2763
      4 C         142.1725  142.9531  164.4223 C.ar    1  UNL1       -0.0178
      5 C         142.7990  144.3021  164.2285 C.ar    1  UNL1       -0.0041
      6 C         143.2191  144.7441  162.8580 C.ar    1  UNL1       -0.0003
      7 C         143.0127  143.8371  161.6813 C.ar    1  UNL1        0.0001
      8 C         142.3861  142.4881  161.8751 C.ar    1  UNL1        0.0042
      9 C         141.9660  142.0461  163.2456 C.ar    1  UNL1        0.0496
     10 C         142.7759  141.9984  166.7620 C.3     1  UNL1        0.0050
     11 C         141.7524  142.5111  165.7927 C.3     1  UNL1        0.0265
     12 C         139.0009  141.7109  162.9364 C.3     1  UNL1        0.0927
     13 C         138.4957  142.7472  163.8960 C.3     1  UNL1        0.0383
     14 C         137.6823  143.7403  163.1200 C.3     1  UNL1        0.0704
     15 N         137.6848  143.3178  161.6807 N.3     1  UNL1       -0.2960
     16 C         138.4997  142.0636  161.5673 C.3     1  UNL1        0.0887
     17 H         138.0974  144.0519  161.1052 H       1  UNL1        0.1233
     18 C         139.2303  139.1804  163.4784 C.3     1  UNL1        0.0936
     19 C         138.6732  138.7975  164.8174 C.3     1  UNL1        0.0199
     20 C         138.4725  137.5055  165.5527 C.3     1  UNL1        0.0017
     21 C         137.8853  138.2560  166.7111 C.3     1  UNL1        0.0001
     22 C         138.0860  139.5480  165.9759 C.3     1  UNL1        0.0017
@<TRIPOS>BOND
     1    10    11    1
     2    11     4    1
     3     4     5   ar
     4     5     6   ar
     5     6     7   ar
     6     7     8   ar
     7     8     9   ar
     8     9     1    1
     9     1     2    2
    10     1     3   am
    11     3    18    1
    12    18    19    1
    13    19    20    1
    14    20    21    1
    15    21    22    1
    16    12     3    1
    17    12    13    1
    18    13    14    1
    19    14    15    1
    20    15    16    1
    21     9     4   ar
    22    22    19    1
    23    16    12    1
    24    15    17    1
@<TRIPOS>MOLECULE
*****
 22 24 0 0 0
SMALL
GASTEIGER

@<TRIPOS>ATOM
      1 C         142.8155  142.1635  166.8265 C.2     1  UNL1        0.2487
      2 O         143.4375  142.2397  168.1893 O.2     1  UNL1       -0.2699
      3 N         141.3574  142.4675  166.6495 N.am    1  UNL1       -0.2763
      4 C         143.7550  140.3455  165.2257 C.ar    1  UNL1       -0.0178
      5 C         144.5912  139.9653  164.0399 C.ar    1  UNL1       -0.0041
      6 C         145.3241  141.0228  163.2690 C.ar    1  UNL1       -0.0003
      7 C         145.2209  142.4606  163.6838 C.ar    1  UNL1        0.0001
      8 C         144.3847  142.8408  164.8696 C.ar    1  UNL1        0.0042
      9 C         143.6517  141.7832  165.6406 C.ar    1  UNL1        0.0496
     10 C         142.2875  138.2019  165.2679 C.3     1  UNL1        0.0050
     11 C         143.0220  139.2879  165.9967 C.3     1  UNL1        0.0265
     12 C         140.7354  142.3912  165.2866 C.3     1  UNL1        0.0927
     13 C         140.6882  143.4985  164.2758 C.3     1  UNL1        0.0383
     14 C         139.9750  142.9859  163.0598 C.3     1  UNL1        0.0704
     15 N         139.5814  141.5619  163.3191 N.3     1  UNL1       -0.2960
     16 C         140.0513  141.1944  164.6954 C.3     1  UNL1        0.0887
     17 H         140.0187  140.9508  162.6293 H       1  UNL1        0.1233
     18 C         140.5212  142.8477  167.8353 C.3     1  UNL1        0.0936
     19 C         139.9881  141.7844  168.7491 C.3     1  UNL1        0.0199
     20 C         139.6028  141.7261  170.1976 C.3     1  UNL1        0.0017
     21 C         139.2342  140.2805  170.0414 C.3     1  UNL1        0.0001
     22 C         139.6194  140.3388  168.5929 C.3     1  UNL1        0.0017
@<TRIPOS>BOND
     1    10    11    1
     2    11     4    1
     3     4     5   ar
     4     5     6   ar
     5     6     7   ar
     6     7     8   ar
     7     8     9   ar
     8     9     1    1
     9     1     2    2
    10     1     3   am
    11     3    18    1
    12    18    19    1
    13    19    20    1
    14    20    21    1
    15    21    22    1
    16    12     3    1
    17    12    13    1
    18    13    14    1
    19    14    15    1
    20    15    16    1
    21     9     4   ar
    22    22    19    1
    23    16    12    1
    24    15    17    1
@<TRIPOS>MOLECULE
*****
 22 24 0 0 0
SMALL
GASTEIGER

@<TRIPOS>ATOM
      1 C         142.9124  141.9657  166.8244 C.2     1  UNL1        0.2487
      2 O         143.1514  142.7156  168.1014 O.2     1  UNL1       -0.2699
      3 N         142.4936  140.5260  166.8672 N.am    1  UNL1       -0.2763
      4 C         141.9217  143.3153  164.8376 C.ar    1  UNL1       -0.0178
      5 C         142.1016  144.0052  163.5179 C.ar    1  UNL1       -0.0041
      6 C         143.4518  144.0355  162.8653 C.ar    1  UNL1       -0.0003
      7 C         144.6222  143.3759  163.5323 C.ar    1  UNL1        0.0001
      8 C         144.4424  142.6860  164.8520 C.ar    1  UNL1        0.0042
      9 C         143.0922  142.6557  165.5047 C.ar    1  UNL1        0.0496
     10 C         139.5418  144.3150  165.1316 C.3     1  UNL1        0.0050
     11 C         140.5715  143.2850  165.4903 C.3     1  UNL1        0.0265
     12 C         142.2546  139.7762  165.5902 C.3     1  UNL1        0.0927
     13 C         143.2919  139.0475  164.7883 C.3     1  UNL1        0.0383
     14 C         142.6147  138.4444  163.5934 C.3     1  UNL1        0.0704
     15 N         141.1590  138.8004  163.6568 N.3     1  UNL1       -0.2960
     16 C         140.9364  139.6235  164.8909 C.3     1  UNL1        0.0887
     17 H         140.5964  137.9507  163.7014 H       1  UNL1        0.1233
     18 C         142.3139  139.8361  168.1870 C.3     1  UNL1        0.0936
     19 C         141.0348  140.0032  168.9525 C.3     1  UNL1        0.0199
     20 C         140.6518  139.9523  170.4019 C.3     1  UNL1        0.0017
     21 C         139.2260  140.2395  170.0352 C.3     1  UNL1        0.0001
     22 C         139.6090  140.2904  168.5858 C.3     1  UNL1        0.0017
@<TRIPOS>BOND
     1    10    11    1
     2    11     4    1
     3     4     5   ar
     4     5     6   ar
     5     6     7   ar
     6     7     8   ar
     7     8     9   ar
     8     9     1    1
     9     1     2    2
    10     1     3   am
    11     3    18    1
    12    18    19    1
    13    19    20    1
    14    20    21    1
    15    21    22    1
    16    12     3    1
    17    12    13    1
    18    13    14    1
    19    14    15    1
    20    15    16    1
    21     9     4   ar
    22    22    19    1
    23    16    12    1
    24    15    17    1
@<TRIPOS>MOLECULE
*****
 22 24 0 0 0
SMALL
GASTEIGER

@<TRIPOS>ATOM
      1 C         141.2538  141.1922  163.9266 C.2     1  UNL1        0.2487
      2 O         140.5458  142.1310  164.8579 O.2     1  UNL1       -0.2699
      3 N         140.5052  140.0567  163.2941 N.am    1  UNL1       -0.2763
      4 C         143.7487  140.7644  164.5121 C.ar    1  UNL1       -0.0178
      5 C         145.2053  140.9613  164.2132 C.ar    1  UNL1       -0.0041
      6 C         145.6238  141.7827  163.0299 C.ar    1  UNL1       -0.0003
      7 C         144.5857  142.4072  162.1455 C.ar    1  UNL1        0.0001
      8 C         143.1291  142.2104  162.4444 C.ar    1  UNL1        0.0042
      9 C         142.7106  141.3890  163.6277 C.ar    1  UNL1        0.0496
     10 C         143.7174  138.4964  165.7788 C.3     1  UNL1        0.0050
     11 C         143.3301  139.9431  165.6954 C.3     1  UNL1        0.0265
     12 C         141.2132  139.1179  162.3627 C.3     1  UNL1        0.0927
     13 C         141.4555  139.3434  160.8997 C.3     1  UNL1        0.0383
     14 C         142.1953  138.1537  160.3636 C.3     1  UNL1        0.0704
     15 N         142.4102  137.1929  161.4953 N.3     1  UNL1       -0.2960
     16 C         141.8032  137.7889  162.7308 C.3     1  UNL1        0.0887
     17 H         143.4091  137.0437  161.6378 H       1  UNL1        0.1233
     18 C         139.0484  139.8599  163.5929 C.3     1  UNL1        0.0936
     19 C         138.6300  139.0739  164.8000 C.3     1  UNL1        0.0199
     20 C         138.6839  137.6278  165.1951 C.3     1  UNL1        0.0017
     21 C         138.0382  137.9623  166.5071 C.3     1  UNL1        0.0001
     22 C         137.9843  139.4083  166.1120 C.3     1  UNL1        0.0017
@<TRIPOS>BOND
     1    10    11    1
     2    11     4    1
     3     4     5   ar
     4     5     6   ar
     5     6     7   ar
     6     7     8   ar
     7     8     9   ar
     8     9     1    1
     9     1     2    2
    10     1     3   am
    11     3    18    1
    12    18    19    1
    13    19    20    1
    14    20    21    1
    15    21    22    1
    16    12     3    1
    17    12    13    1
    18    13    14    1
    19    14    15    1
    20    15    16    1
    21     9     4   ar
    22    22    19    1
    23    16    12    1
    24    15    17    1
