@<TRIPOS>MOLECULE
*****
 37 41 0 0 0
SMALL
GASTEIGER

@<TRIPOS>ATOM
      1 C         141.3009  142.0090  167.5573 C.3     1  UNL1        0.0522
      2 C         140.8118  142.8496  168.6994 C.3     1  UNL1        0.0065
      3 C         140.0000  142.2259  169.7957 C.3     1  UNL1        0.0004
      4 C         139.6772  140.7617  169.7500 C.3     1  UNL1        0.0005
      5 C         140.1663  139.9212  168.6079 C.3     1  UNL1        0.0095
      6 C         140.9781  140.5449  167.5116 C.3     1  UNL1        0.0824
      7 C         141.1253  144.3129  162.4292 C.ar    1  UNL1        0.0225
      8 C         139.9689  143.7755  163.2189 C.ar    1  UNL1        0.0018
      9 C         140.1980  143.1915  164.5814 C.ar    1  UNL1        0.0045
     10 C         141.5835  143.1449  165.1542 C.ar    1  UNL1        0.0539
     11 C         142.1127  142.6326  166.4610 C.ar    1  UNL1        0.1006
     12 N         143.5962  142.8534  166.4788 N.ar    1  UNL1       -0.0814
     13 O         143.9839  143.5022  165.1831 O.2     1  UNL1       -0.3537
     14 C         142.7400  143.6824  164.3644 C.ar    1  UNL1        0.1766
     15 C         142.5109  144.2663  163.0019 C.ar    1  UNL1        0.0418
     16 C         141.7548  145.6026  157.3477 C.3     1  UNL1        0.0515
     17 C         141.1857  145.4897  158.7309 C.ar    1  UNL1        0.0535
     18 C         141.8001  144.7453  159.8791 C.ar    1  UNL1        0.0349
     19 C         140.8963  144.8969  161.0666 C.ar    1  UNL1        0.1019
     20 N         139.7233  145.7350  160.6523 N.ar    1  UNL1       -0.1730
     21 N         139.9021  146.1013  159.2088 N.ar    1  UNL1       -0.2798
     22 H         139.2853  146.6474  158.6697 H       1  UNL1        0.1886
     23 C         141.4673  139.7044  166.3695 C.2     1  UNL1        0.2261
     24 O         142.5900  138.7323  166.5805 O.2     1  UNL1       -0.2748
     25 N         140.8336  139.8360  165.0163 N.am    1  UNL1       -0.2814
     26 H         140.0968  140.4741  164.8778 H       1  UNL1        0.1549
     27 C         141.3227  138.9956  163.8741 C.ar    1  UNL1        0.0934
     28 C         142.7093  139.0065  163.3019 C.ar    1  UNL1        0.1115
     29 N         142.7546  138.0144  162.1778 N.ar    1  UNL1       -0.2459
     30 C         143.9488  137.7013  161.3258 C.3     1  UNL1        0.1538
     31 N         141.3961  137.3903  162.0553 N.ar    1  UNL1       -0.1632
     32 C         140.5111  137.9967  163.1036 C.ar    1  UNL1        0.1686
     33 C         139.0680  137.6628  163.3401 C.2     1  UNL1        0.2635
     34 N         138.1389  137.4850  162.1760 N.am    1  UNL1       -0.3240
     35 O         138.5540  137.5068  164.7406 O.2     1  UNL1       -0.2686
     36 H         138.4762  137.5874  161.2568 H       1  UNL1        0.1453
     37 H         137.1917  137.2659  162.3312 H       1  UNL1        0.1453
@<TRIPOS>BOND
     1    16    17    1
     2    17    18   ar
     3    18    19   ar
     4    19     7    1
     5     7     8   ar
     6     8     9   ar
     7     9    10   ar
     8    10    11   ar
     9     1    11    1
    10     1     2    1
    11     2     3    1
    12     3     4    1
    13     4     5    1
    14     5     6    1
    15     6    23    1
    16    23    24    2
    17    23    25   am
    18    25    27    1
    19    27    28   ar
    20    28    29   ar
    21    29    30    1
    22    29    31   ar
    23    31    32   ar
    24    32    33    1
    25    33    34   am
    26    33    35    2
    27    11    12   ar
    28    12    13   ar
    29    13    14   ar
    30    14    15   ar
    31    19    20   ar
    32    20    21   ar
    33    21    17   ar
    34    15     7   ar
    35    14    10   ar
    36     6     1    1
    37    32    27   ar
    38    25    26    1
    39    34    36    1
    40    34    37    1
    41    21    22    1
@<TRIPOS>MOLECULE
*****
 37 41 0 0 0
SMALL
GASTEIGER

@<TRIPOS>ATOM
      1 C         143.4386  141.9724  162.7716 C.3     1  UNL1        0.0522
      2 C         144.1872  143.1390  162.1984 C.3     1  UNL1        0.0065
      3 C         144.0828  144.4882  162.8455 C.3     1  UNL1        0.0004
      4 C         143.2297  144.6708  164.0657 C.3     1  UNL1        0.0005
      5 C         142.4811  143.5042  164.6389 C.3     1  UNL1        0.0095
      6 C         142.5855  142.1550  163.9918 C.3     1  UNL1        0.0824
      7 C         141.4484  138.6470  158.6952 C.ar    1  UNL1        0.0225
      8 C         141.0165  140.0485  159.0101 C.ar    1  UNL1        0.0018
      9 C         141.6591  140.7949  160.1414 C.ar    1  UNL1        0.0045
     10 C         142.7336  140.1398  160.9578 C.ar    1  UNL1        0.0539
     11 C         143.5430  140.6232  162.1246 C.ar    1  UNL1        0.1006
     12 N         144.4750  139.5203  162.5307 N.ar    1  UNL1       -0.0814
     13 O         144.2417  138.3554  161.6149 O.2     1  UNL1       -0.3537
     14 C         143.1654  138.7383  160.6428 C.ar    1  UNL1        0.1766
     15 C         142.5228  137.9919  159.5115 C.ar    1  UNL1        0.0418
     16 C         140.7711  135.7988  154.3008 C.3     1  UNL1        0.0515
     17 C         140.4945  136.5914  155.5439 C.ar    1  UNL1        0.0535
     18 C         141.5243  137.2021  156.4476 C.ar    1  UNL1        0.0349
     19 C         140.8058  137.9005  157.5638 C.ar    1  UNL1        0.1019
     20 N         139.3319  137.7215  157.3501 N.ar    1  UNL1       -0.1730
     21 N         139.1395  136.9123  156.1018 N.ar    1  UNL1       -0.2798
     22 H         138.2756  136.6398  155.7162 H       1  UNL1        0.1886
     23 C         141.8369  140.9883  164.5650 C.2     1  UNL1        0.2261
     24 O         142.5536  139.9817  165.4152 O.2     1  UNL1       -0.2748
     25 N         140.3714  140.8283  164.2878 N.am    1  UNL1       -0.2814
     26 H         139.9010  141.4890  163.7297 H       1  UNL1        0.1549
     27 C         139.6227  139.6617  164.8609 C.ar    1  UNL1        0.0934
     28 C         138.6601  139.7104  166.0103 C.ar    1  UNL1        0.1115
     29 N         138.1476  138.3204  166.2450 N.ar    1  UNL1       -0.2459
     30 C         137.1623  137.9102  167.2989 C.3     1  UNL1        0.1538
     31 N         138.7934  137.4125  165.2406 N.ar    1  UNL1       -0.1632
     32 C         139.7050  138.2414  164.3852 C.ar    1  UNL1        0.1686
     33 C         140.5506  137.7385  163.2529 C.2     1  UNL1        0.2635
     34 N         141.9975  137.4167  163.4827 N.am    1  UNL1       -0.3240
     35 O         139.9492  137.5574  161.8906 O.2     1  UNL1       -0.2686
     36 H         142.3922  137.5355  164.3768 H       1  UNL1        0.1453
     37 H         142.5525  137.0866  162.7396 H       1  UNL1        0.1453
@<TRIPOS>BOND
     1    16    17    1
     2    17    18   ar
     3    18    19   ar
     4    19     7    1
     5     7     8   ar
     6     8     9   ar
     7     9    10   ar
     8    10    11   ar
     9     1    11    1
    10     1     2    1
    11     2     3    1
    12     3     4    1
    13     4     5    1
    14     5     6    1
    15     6    23    1
    16    23    24    2
    17    23    25   am
    18    25    27    1
    19    27    28   ar
    20    28    29   ar
    21    29    30    1
    22    29    31   ar
    23    31    32   ar
    24    32    33    1
    25    33    34   am
    26    33    35    2
    27    11    12   ar
    28    12    13   ar
    29    13    14   ar
    30    14    15   ar
    31    19    20   ar
    32    20    21   ar
    33    21    17   ar
    34    15     7   ar
    35    14    10   ar
    36     6     1    1
    37    32    27   ar
    38    25    26    1
    39    34    36    1
    40    34    37    1
    41    21    22    1
@<TRIPOS>MOLECULE
*****
 37 41 0 0 0
SMALL
GASTEIGER

@<TRIPOS>ATOM
      1 C         140.3854  140.2269  167.7332 C.3     1  UNL1        0.0522
      2 C         139.9079  140.5374  169.1209 C.3     1  UNL1        0.0065
      3 C         140.7787  140.2239  170.3013 C.3     1  UNL1        0.0004
      4 C         142.1269  139.6000  170.0941 C.3     1  UNL1        0.0005
      5 C         142.6045  139.2895  168.7065 C.3     1  UNL1        0.0095
      6 C         141.7337  139.6030  167.5261 C.3     1  UNL1        0.0824
      7 C         139.6862  143.5975  163.2850 C.ar    1  UNL1        0.0225
      8 C         140.7988  143.6458  164.2898 C.ar    1  UNL1        0.0018
      9 C         140.8297  142.6628  165.4224 C.ar    1  UNL1        0.0045
     10 C         139.7479  141.6315  165.5501 C.ar    1  UNL1        0.0539
     11 C         139.5147  140.5404  166.5527 C.ar    1  UNL1        0.1006
     12 N         138.2580  139.8178  166.1675 N.ar    1  UNL1       -0.0814
     13 O         137.7144  140.4624  164.9269 O.2     1  UNL1       -0.3537
     14 C         138.6353  141.5833  164.5453 C.ar    1  UNL1        0.1766
     15 C         138.6044  142.5663  163.4128 C.ar    1  UNL1        0.0418
     16 C         140.4321  145.8478  158.5669 C.3     1  UNL1        0.0515
     17 C         139.9982  145.6149  159.9837 C.ar    1  UNL1        0.0535
     18 C         140.2688  144.3844  160.7977 C.ar    1  UNL1        0.0349
     19 C         139.6553  144.5806  162.1524 C.ar    1  UNL1        0.1019
     20 N         139.0054  145.9323  162.1756 N.ar    1  UNL1       -0.1730
     21 N         139.2173  146.5716  160.8353 N.ar    1  UNL1       -0.2798
     22 H         138.8997  147.4626  160.5624 H       1  UNL1        0.1886
     23 C         142.2112  139.2926  166.1383 C.2     1  UNL1        0.2261
     24 O         141.8237  138.0000  165.4834 O.2     1  UNL1       -0.2748
     25 N         143.0762  140.2749  165.4056 N.am    1  UNL1       -0.2814
     26 H         143.3305  141.1233  165.8355 H       1  UNL1        0.1549
     27 C         143.5537  139.9645  164.0179 C.ar    1  UNL1        0.0934
     28 C         143.4295  138.6439  163.3174 C.ar    1  UNL1        0.1115
     29 N         144.0383  138.7835  161.9536 N.ar    1  UNL1       -0.2459
     30 C         144.1304  137.7055  160.9148 C.3     1  UNL1        0.1538
     31 N         144.5387  140.1904  161.8112 N.ar    1  UNL1       -0.1632
     32 C         144.2393  140.9203  163.0870 C.ar    1  UNL1        0.1686
     33 C         144.5677  142.3542  163.3803 C.2     1  UNL1        0.2635
     34 N         144.9844  143.2708  162.2685 N.am    1  UNL1       -0.3240
     35 O         144.4793  142.8715  164.7856 O.2     1  UNL1       -0.2686
     36 H         145.0424  142.9313  161.3462 H       1  UNL1        0.1453
     37 H         145.2000  144.2119  162.4611 H       1  UNL1        0.1453
@<TRIPOS>BOND
     1    16    17    1
     2    17    18   ar
     3    18    19   ar
     4    19     7    1
     5     7     8   ar
     6     8     9   ar
     7     9    10   ar
     8    10    11   ar
     9     1    11    1
    10     1     2    1
    11     2     3    1
    12     3     4    1
    13     4     5    1
    14     5     6    1
    15     6    23    1
    16    23    24    2
    17    23    25   am
    18    25    27    1
    19    27    28   ar
    20    28    29   ar
    21    29    30    1
    22    29    31   ar
    23    31    32   ar
    24    32    33    1
    25    33    34   am
    26    33    35    2
    27    11    12   ar
    28    12    13   ar
    29    13    14   ar
    30    14    15   ar
    31    19    20   ar
    32    20    21   ar
    33    21    17   ar
    34    15     7   ar
    35    14    10   ar
    36     6     1    1
    37    32    27   ar
    38    25    26    1
    39    34    36    1
    40    34    37    1
    41    21    22    1
@<TRIPOS>MOLECULE
*****
 37 41 0 0 0
SMALL
GASTEIGER

@<TRIPOS>ATOM
      1 C         139.1428  138.4428  165.3989 C.3     1  UNL1        0.0522
      2 C         137.9946  137.6463  165.9442 C.3     1  UNL1        0.0065
      3 C         137.4339  137.9688  167.2975 C.3     1  UNL1        0.0004
      4 C         138.0212  139.0878  168.1055 C.3     1  UNL1        0.0005
      5 C         139.1694  139.8843  167.5602 C.3     1  UNL1        0.0095
      6 C         139.7301  139.5618  166.2069 C.3     1  UNL1        0.0824
      7 C         138.7223  139.4326  159.8780 C.ar    1  UNL1        0.0225
      8 C         137.8803  140.0243  160.9693 C.ar    1  UNL1        0.0018
      9 C         138.1318  139.6466  162.3989 C.ar    1  UNL1        0.0045
     10 C         139.2253  138.6772  162.7374 C.ar    1  UNL1        0.0539
     11 C         139.7036  138.1204  164.0455 C.ar    1  UNL1        0.1006
     12 N         140.8412  137.1845  163.7627 N.ar    1  UNL1       -0.0814
     13 O         141.0659  137.1629  162.2798 O.2     1  UNL1       -0.3537
     14 C         140.0672  138.0855  161.6461 C.ar    1  UNL1        0.1766
     15 C         139.8157  138.4632  160.2164 C.ar    1  UNL1        0.0418
     16 C         137.1326  142.0614  155.5834 C.3     1  UNL1        0.0515
     17 C         137.7401  141.0187  156.4742 C.ar    1  UNL1        0.0535
     18 C         137.7668  141.0470  157.9737 C.ar    1  UNL1        0.0349
     19 C         138.4708  139.8103  158.4482 C.ar    1  UNL1        0.1019
     20 N         138.8790  139.0176  157.2420 N.ar    1  UNL1       -0.1730
     21 N         138.4275  139.7644  156.0220 N.ar    1  UNL1       -0.2798
     22 H         138.5591  139.4811  155.0884 H       1  UNL1        0.1886
     23 C         140.8783  140.3583  165.6615 C.2     1  UNL1        0.2261
     24 O         142.2481  140.2006  166.2520 O.2     1  UNL1       -0.2748
     25 N         140.6565  141.3125  164.5256 N.am    1  UNL1       -0.2814
     26 H         139.7575  141.4160  164.1380 H       1  UNL1        0.1549
     27 C         141.8046  142.1090  163.9801 C.ar    1  UNL1        0.0934
     28 C         142.0730  143.5615  164.2413 C.ar    1  UNL1        0.1115
     29 N         143.3201  143.9431  163.5004 N.ar    1  UNL1       -0.2459
     30 C         143.9535  145.3026  163.4818 C.3     1  UNL1        0.1538
     31 N         143.8226  142.7264  162.7813 N.ar    1  UNL1       -0.1632
     32 C         142.8860  141.5928  163.0777 C.ar    1  UNL1        0.1686
     33 C         143.0092  140.1895  162.5624 C.2     1  UNL1        0.2635
     34 N         143.2100  139.0534  163.5210 N.am    1  UNL1       -0.3240
     35 O         142.9315  139.9224  161.0884 O.2     1  UNL1       -0.2686
     36 H         143.2610  139.2288  164.4884 H       1  UNL1        0.1453
     37 H         143.2909  138.1324  163.1827 H       1  UNL1        0.1453
@<TRIPOS>BOND
     1    16    17    1
     2    17    18   ar
     3    18    19   ar
     4    19     7    1
     5     7     8   ar
     6     8     9   ar
     7     9    10   ar
     8    10    11   ar
     9     1    11    1
    10     1     2    1
    11     2     3    1
    12     3     4    1
    13     4     5    1
    14     5     6    1
    15     6    23    1
    16    23    24    2
    17    23    25   am
    18    25    27    1
    19    27    28   ar
    20    28    29   ar
    21    29    30    1
    22    29    31   ar
    23    31    32   ar
    24    32    33    1
    25    33    34   am
    26    33    35    2
    27    11    12   ar
    28    12    13   ar
    29    13    14   ar
    30    14    15   ar
    31    19    20   ar
    32    20    21   ar
    33    21    17   ar
    34    15     7   ar
    35    14    10   ar
    36     6     1    1
    37    32    27   ar
    38    25    26    1
    39    34    36    1
    40    34    37    1
    41    21    22    1
@<TRIPOS>MOLECULE
*****
 37 41 0 0 0
SMALL
GASTEIGER

@<TRIPOS>ATOM
      1 C         142.9655  141.8257  167.1933 C.3     1  UNL1        0.0522
      2 C         142.9486  142.2793  168.6230 C.3     1  UNL1        0.0065
      3 C         142.5034  141.3384  169.7030 C.3     1  UNL1        0.0004
      4 C         142.0751  139.9440  169.3534 C.3     1  UNL1        0.0005
      5 C         142.0920  139.4904  167.9237 C.3     1  UNL1        0.0095
      6 C         142.5373  140.4313  166.8437 C.3     1  UNL1        0.0824
      7 C         141.4296  144.5114  162.4960 C.ar    1  UNL1        0.0225
      8 C         140.5882  143.5869  163.3251 C.ar    1  UNL1        0.0018
      9 C         141.1625  142.9521  164.5568 C.ar    1  UNL1        0.0045
     10 C         142.5781  143.2418  164.9595 C.ar    1  UNL1        0.0539
     11 C         143.4107  142.7665  166.1132 C.ar    1  UNL1        0.1006
     12 N         144.7667  143.3973  165.9970 N.ar    1  UNL1       -0.0814
     13 O         144.7721  144.2623  164.7716 O.2     1  UNL1       -0.3537
     14 C         143.4195  144.1662  164.1304 C.ar    1  UNL1        0.1766
     15 C         142.8452  144.8010  162.8986 C.ar    1  UNL1        0.0418
     16 C         140.7041  145.9823  157.4769 C.3     1  UNL1        0.0515
     17 C         140.5219  145.8223  158.9572 C.ar    1  UNL1        0.0535
     18 C         141.4080  145.0327  159.8744 C.ar    1  UNL1        0.0349
     19 C         140.8553  145.1463  161.2642 C.ar    1  UNL1        0.1019
     20 N         139.6276  146.0061  161.2060 N.ar    1  UNL1       -0.1730
     21 N         139.4215  146.4240  159.7802 N.ar    1  UNL1       -0.2798
     22 H         138.6922  146.9932  159.4437 H       1  UNL1        0.1886
     23 C         142.5542  139.9778  165.4140 C.2     1  UNL1        0.2261
     24 O         141.2937  139.4823  164.7692 O.2     1  UNL1       -0.2748
     25 N         143.8317  140.0197  164.6290 N.am    1  UNL1       -0.2814
     26 H         144.6590  140.3449  165.0522 H       1  UNL1        0.1549
     27 C         143.8487  139.5662  163.1993 C.ar    1  UNL1        0.0934
     28 C         143.2677  138.2874  162.6729 C.ar    1  UNL1        0.1115
     29 N         143.5096  138.2427  161.1932 N.ar    1  UNL1       -0.2459
     30 C         143.0940  137.1404  160.2648 C.3     1  UNL1        0.1538
     31 N         144.2403  139.4940  160.8051 N.ar    1  UNL1       -0.1632
     32 C         144.4498  140.3119  162.0448 C.ar    1  UNL1        0.1686
     33 C         145.1394  141.6420  162.1174 C.2     1  UNL1        0.2635
     34 N         146.0559  141.9501  163.2642 N.am    1  UNL1       -0.3240
     35 O         144.9125  142.6641  161.0431 O.2     1  UNL1       -0.2686
     36 H         146.2048  141.2793  163.9693 H       1  UNL1        0.1453
     37 H         146.5085  142.8231  163.3119 H       1  UNL1        0.1453
@<TRIPOS>BOND
     1    16    17    1
     2    17    18   ar
     3    18    19   ar
     4    19     7    1
     5     7     8   ar
     6     8     9   ar
     7     9    10   ar
     8    10    11   ar
     9     1    11    1
    10     1     2    1
    11     2     3    1
    12     3     4    1
    13     4     5    1
    14     5     6    1
    15     6    23    1
    16    23    24    2
    17    23    25   am
    18    25    27    1
    19    27    28   ar
    20    28    29   ar
    21    29    30    1
    22    29    31   ar
    23    31    32   ar
    24    32    33    1
    25    33    34   am
    26    33    35    2
    27    11    12   ar
    28    12    13   ar
    29    13    14   ar
    30    14    15   ar
    31    19    20   ar
    32    20    21   ar
    33    21    17   ar
    34    15     7   ar
    35    14    10   ar
    36     6     1    1
    37    32    27   ar
    38    25    26    1
    39    34    36    1
    40    34    37    1
    41    21    22    1
@<TRIPOS>MOLECULE
*****
 37 41 0 0 0
SMALL
GASTEIGER

@<TRIPOS>ATOM
      1 C         141.3625  138.8866  161.1215 C.3     1  UNL1        0.0522
      2 C         142.1779  137.7857  160.5106 C.3     1  UNL1        0.0065
      3 C         143.1640  138.0971  159.4241 C.3     1  UNL1        0.0004
      4 C         143.3347  139.5094  158.9484 C.3     1  UNL1        0.0005
      5 C         142.5193  140.6103  159.5592 C.3     1  UNL1        0.0095
      6 C         141.5333  140.2989  160.6457 C.3     1  UNL1        0.0824
      7 C         140.1089  139.6104  166.5566 C.ar    1  UNL1        0.0225
      8 C         141.3026  140.1484  165.8247 C.ar    1  UNL1        0.0018
      9 C         141.4814  139.8560  164.3645 C.ar    1  UNL1        0.0045
     10 C         140.4666  139.0256  163.6361 C.ar    1  UNL1        0.0539
     11 C         140.3764  138.5753  162.2080 C.ar    1  UNL1        0.1006
     12 N         139.1270  137.7590  162.0574 N.ar    1  UNL1       -0.0814
     13 O         138.4450  137.7048  163.3923 O.2     1  UNL1       -0.3537
     14 C         139.2729  138.4876  164.3680 C.ar    1  UNL1        0.1766
     15 C         139.0941  138.7800  165.8283 C.ar    1  UNL1        0.0418
     16 C         140.9798  141.2973  171.4838 C.3     1  UNL1        0.0515
     17 C         140.3304  140.6782  170.2818 C.ar    1  UNL1        0.0535
     18 C         140.9180  140.6012  168.9038 C.ar    1  UNL1        0.0349
     19 C         139.9301  139.9028  168.0170 C.ar    1  UNL1        0.1019
     20 N         138.7320  139.5482  168.8469 N.ar    1  UNL1       -0.1730
     21 N         138.9794  140.0274  170.2466 N.ar    1  UNL1       -0.2798
     22 H         138.3632  139.9316  171.0085 H       1  UNL1        0.1886
     23 C         140.7178  141.3998  161.2566 C.2     1  UNL1        0.2261
     24 O         139.2858  141.5863  160.8509 O.2     1  UNL1       -0.2748
     25 N         141.3344  142.3142  162.2733 N.am    1  UNL1       -0.2814
     26 H         142.2743  142.1918  162.5396 H       1  UNL1        0.1549
     27 C         140.5191  143.4151  162.8843 C.ar    1  UNL1        0.0934
     28 C         139.8578  143.3798  164.2302 C.ar    1  UNL1        0.1115
     29 N         139.1519  144.6874  164.4344 N.ar    1  UNL1       -0.2459
     30 C         138.3601  145.0822  165.6456 C.3     1  UNL1        0.1538
     31 N         139.3768  145.5309  163.2145 N.ar    1  UNL1       -0.1632
     32 C         140.2217  144.7446  162.2565 C.ar    1  UNL1        0.1686
     33 C         140.6875  145.2067  160.9076 C.2     1  UNL1        0.2635
     34 N         142.1228  145.0307  160.5090 N.am    1  UNL1       -0.3240
     35 O         139.7180  145.8447  159.9573 O.2     1  UNL1       -0.2686
     36 H         142.7591  144.6120  161.1327 H       1  UNL1        0.1453
     37 H         142.4286  145.3340  159.6237 H       1  UNL1        0.1453
@<TRIPOS>BOND
     1    16    17    1
     2    17    18   ar
     3    18    19   ar
     4    19     7    1
     5     7     8   ar
     6     8     9   ar
     7     9    10   ar
     8    10    11   ar
     9     1    11    1
    10     1     2    1
    11     2     3    1
    12     3     4    1
    13     4     5    1
    14     5     6    1
    15     6    23    1
    16    23    24    2
    17    23    25   am
    18    25    27    1
    19    27    28   ar
    20    28    29   ar
    21    29    30    1
    22    29    31   ar
    23    31    32   ar
    24    32    33    1
    25    33    34   am
    26    33    35    2
    27    11    12   ar
    28    12    13   ar
    29    13    14   ar
    30    14    15   ar
    31    19    20   ar
    32    20    21   ar
    33    21    17   ar
    34    15     7   ar
    35    14    10   ar
    36     6     1    1
    37    32    27   ar
    38    25    26    1
    39    34    36    1
    40    34    37    1
    41    21    22    1
@<TRIPOS>MOLECULE
*****
 37 41 0 0 0
SMALL
GASTEIGER

@<TRIPOS>ATOM
      1 C         143.4350  141.1996  163.1566 C.3     1  UNL1        0.0522
      2 C         144.4060  142.2511  162.7075 C.3     1  UNL1        0.0065
      3 C         144.9191  143.2651  163.6865 C.3     1  UNL1        0.0004
      4 C         144.4613  143.2277  165.1144 C.3     1  UNL1        0.0005
      5 C         143.4904  142.1763  165.5635 C.3     1  UNL1        0.0095
      6 C         142.9772  141.1622  164.5845 C.3     1  UNL1        0.0824
      7 C         139.8739  140.2915  158.8986 C.ar    1  UNL1        0.0225
      8 C         140.0765  141.5739  159.6499 C.ar    1  UNL1        0.0018
      9 C         141.0760  141.6390  160.7665 C.ar    1  UNL1        0.0045
     10 C         141.8728  140.4218  161.1318 C.ar    1  UNL1        0.0539
     11 C         142.9218  140.1855  162.1777 C.ar    1  UNL1        0.1006
     12 N         143.3674  138.7571  162.0728 N.ar    1  UNL1       -0.0814
     13 O         142.5938  138.1106  160.9621 O.2     1  UNL1       -0.3537
     14 C         141.6701  139.1394  160.3805 C.ar    1  UNL1        0.1766
     15 C         140.6707  139.0743  159.2640 C.ar    1  UNL1        0.0418
     16 C         135.8153  141.4310  155.7188 C.3     1  UNL1        0.0515
     17 C         137.0088  140.7501  156.3204 C.ar    1  UNL1        0.0535
     18 C         137.7570  141.1977  157.5410 C.ar    1  UNL1        0.0349
     19 C         138.8744  140.2264  157.7820 C.ar    1  UNL1        0.1019
     20 N         138.8167  139.1784  156.7104 N.ar    1  UNL1       -0.1730
     21 N         137.6638  139.5021  155.8070 N.ar    1  UNL1       -0.2798
     22 H         137.3857  138.9860  155.0161 H       1  UNL1        0.1886
     23 C         142.0062  140.1107  165.0335 C.2     1  UNL1        0.2261
     24 O         142.5108  138.8096  165.5834 O.2     1  UNL1       -0.2748
     25 N         140.5306  140.3604  164.9326 N.am    1  UNL1       -0.2814
     26 H         140.1994  141.2144  164.5716 H       1  UNL1        0.1549
     27 C         139.5596  139.3090  165.3815 C.ar    1  UNL1        0.0934
     28 C         138.7148  139.3601  166.6200 C.ar    1  UNL1        0.1115
     29 N         137.8959  138.1046  166.6747 N.ar    1  UNL1       -0.2459
     30 C         136.9113  137.7402  167.7460 C.3     1  UNL1        0.1538
     31 N         138.2345  137.2774  165.4701 N.ar    1  UNL1       -0.1632
     32 C         139.2627  138.0217  164.6708 C.ar    1  UNL1        0.1686
     33 C         139.8849  137.5600  163.3864 C.2     1  UNL1        0.2635
     34 N         141.2564  136.9527  163.3932 N.am    1  UNL1       -0.3240
     35 O         139.1354  137.7055  162.0952 O.2     1  UNL1       -0.2686
     36 H         141.7483  136.8572  164.2406 H       1  UNL1        0.1453
     37 H         141.6647  136.6496  162.5502 H       1  UNL1        0.1453
@<TRIPOS>BOND
     1    16    17    1
     2    17    18   ar
     3    18    19   ar
     4    19     7    1
     5     7     8   ar
     6     8     9   ar
     7     9    10   ar
     8    10    11   ar
     9     1    11    1
    10     1     2    1
    11     2     3    1
    12     3     4    1
    13     4     5    1
    14     5     6    1
    15     6    23    1
    16    23    24    2
    17    23    25   am
    18    25    27    1
    19    27    28   ar
    20    28    29   ar
    21    29    30    1
    22    29    31   ar
    23    31    32   ar
    24    32    33    1
    25    33    34   am
    26    33    35    2
    27    11    12   ar
    28    12    13   ar
    29    13    14   ar
    30    14    15   ar
    31    19    20   ar
    32    20    21   ar
    33    21    17   ar
    34    15     7   ar
    35    14    10   ar
    36     6     1    1
    37    32    27   ar
    38    25    26    1
    39    34    36    1
    40    34    37    1
    41    21    22    1
@<TRIPOS>MOLECULE
*****
 37 41 0 0 0
SMALL
GASTEIGER

@<TRIPOS>ATOM
      1 C         143.4858  139.7076  161.6374 C.3     1  UNL1        0.0522
      2 C         144.1916  138.3996  161.8401 C.3     1  UNL1        0.0065
      3 C         143.9169  137.2485  160.9184 C.3     1  UNL1        0.0004
      4 C         142.9366  137.4055  159.7940 C.3     1  UNL1        0.0005
      5 C         142.2308  138.7134  159.5913 C.3     1  UNL1        0.0095
      6 C         142.5055  139.8645  160.5130 C.3     1  UNL1        0.0824
      7 C         142.4621  141.8919  166.7185 C.ar    1  UNL1        0.0225
      8 C         141.9321  140.6023  166.1653 C.ar    1  UNL1        0.0018
      9 C         142.3101  140.1689  164.7800 C.ar    1  UNL1        0.0045
     10 C         143.2181  141.0251  163.9478 C.ar    1  UNL1        0.0539
     11 C         143.7604  140.8587  162.5591 C.ar    1  UNL1        0.1006
     12 N         144.6256  142.0454  162.2541 N.ar    1  UNL1       -0.0814
     13 O         144.6179  142.9453  163.4542 O.2     1  UNL1       -0.3537
     14 C         143.7480  142.3147  164.5009 C.ar    1  UNL1        0.1766
     15 C         143.3700  142.7481  165.8863 C.ar    1  UNL1        0.0418
     16 C         139.6188  143.1574  170.9841 C.3     1  UNL1        0.0515
     17 C         140.7771  142.9070  170.0645 C.ar    1  UNL1        0.0535
     18 C         140.6884  142.4420  168.6412 C.ar    1  UNL1        0.0349
     19 C         142.0840  142.3254  168.1039 C.ar    1  UNL1        0.1019
     20 N         143.0352  142.7183  169.1951 N.ar    1  UNL1       -0.1730
     21 N         142.2275  143.0778  170.4069 N.ar    1  UNL1       -0.2798
     22 H         142.5864  143.3738  171.2746 H       1  UNL1        0.1886
     23 C         141.7998  141.1725  160.3104 C.2     1  UNL1        0.2261
     24 O         140.3937  141.3502  160.8016 O.2     1  UNL1       -0.2748
     25 N         142.5003  142.3030  159.6166 N.am    1  UNL1       -0.2814
     26 H         143.4231  142.1864  159.2942 H       1  UNL1        0.1549
     27 C         141.7946  143.6110  159.4139 C.ar    1  UNL1        0.0934
     28 C         141.2369  144.1205  158.1179 C.ar    1  UNL1        0.1115
     29 N         140.6204  145.4636  158.3747 N.ar    1  UNL1       -0.2459
     30 C         139.9458  146.3333  157.3557 C.3     1  UNL1        0.1538
     31 N         140.7971  145.7843  159.8293 N.ar    1  UNL1       -0.1632
     32 C         141.5227  144.6394  160.4716 C.ar    1  UNL1        0.1686
     33 C         141.9088  144.5402  161.9177 C.2     1  UNL1        0.2635
     34 N         143.2063  145.1265  162.3895 N.am    1  UNL1       -0.3240
     35 O         140.9973  143.8545  162.8920 O.2     1  UNL1       -0.2686
     36 H         143.8045  145.5765  161.7501 H       1  UNL1        0.1453
     37 H         143.4596  145.0614  163.3386 H       1  UNL1        0.1453
@<TRIPOS>BOND
     1    16    17    1
     2    17    18   ar
     3    18    19   ar
     4    19     7    1
     5     7     8   ar
     6     8     9   ar
     7     9    10   ar
     8    10    11   ar
     9     1    11    1
    10     1     2    1
    11     2     3    1
    12     3     4    1
    13     4     5    1
    14     5     6    1
    15     6    23    1
    16    23    24    2
    17    23    25   am
    18    25    27    1
    19    27    28   ar
    20    28    29   ar
    21    29    30    1
    22    29    31   ar
    23    31    32   ar
    24    32    33    1
    25    33    34   am
    26    33    35    2
    27    11    12   ar
    28    12    13   ar
    29    13    14   ar
    30    14    15   ar
    31    19    20   ar
    32    20    21   ar
    33    21    17   ar
    34    15     7   ar
    35    14    10   ar
    36     6     1    1
    37    32    27   ar
    38    25    26    1
    39    34    36    1
    40    34    37    1
    41    21    22    1
@<TRIPOS>MOLECULE
*****
 37 41 0 0 0
SMALL
GASTEIGER

@<TRIPOS>ATOM
      1 C         139.8830  142.9437  159.5085 C.3     1  UNL1        0.0522
      2 C         139.9555  144.0548  158.5034 C.3     1  UNL1        0.0065
      3 C         140.2059  145.4621  158.9581 C.3     1  UNL1        0.0004
      4 C         140.3838  145.7583  160.4177 C.3     1  UNL1        0.0005
      5 C         140.3113  144.6472  161.4228 C.3     1  UNL1        0.0095
      6 C         140.0609  143.2399  160.9682 C.3     1  UNL1        0.0824
      7 C         142.2020  138.3503  157.2369 C.ar    1  UNL1        0.0225
      8 C         142.8845  139.6504  157.5434 C.ar    1  UNL1        0.0018
      9 C         142.1081  140.7794  158.1536 C.ar    1  UNL1        0.0045
     10 C         140.6492  140.6084  158.4574 C.ar    1  UNL1        0.0539
     11 C         139.6327  141.5363  159.0540 C.ar    1  UNL1        0.1006
     12 N         138.3219  140.8097  159.1161 N.ar    1  UNL1       -0.0814
     13 O         138.5283  139.4327  158.5580 O.2     1  UNL1       -0.3537
     14 C         139.9666  139.3084  158.1509 C.ar    1  UNL1        0.1766
     15 C         140.7430  138.1793  157.5406 C.ar    1  UNL1        0.0418
     16 C         143.8237  133.4961  155.9378 C.3     1  UNL1        0.0515
     17 C         143.7238  134.9899  156.0295 C.ar    1  UNL1        0.0535
     18 C         142.7077  135.7587  156.8212 C.ar    1  UNL1        0.0349
     19 C         142.9784  137.2212  156.6266 C.ar    1  UNL1        0.1019
     20 N         144.1617  137.3563  155.7148 N.ar    1  UNL1       -0.1730
     21 N         144.6224  135.9774  155.3457 N.ar    1  UNL1       -0.2798
     22 H         145.3813  135.7588  154.7579 H       1  UNL1        0.1886
     23 C         139.9884  142.1287  161.9732 C.2     1  UNL1        0.2261
     24 O         141.1693  141.2276  162.1816 O.2     1  UNL1       -0.2748
     25 N         138.7349  141.9187  162.7698 N.am    1  UNL1       -0.2814
     26 H         137.9598  142.5101  162.6330 H       1  UNL1        0.1549
     27 C         138.6623  140.8075  163.7749 C.ar    1  UNL1        0.0934
     28 C         138.7429  140.9598  165.2650 C.ar    1  UNL1        0.1115
     29 N         138.6268  139.5954  165.8773 N.ar    1  UNL1       -0.2459
     30 C         138.6577  139.2817  167.3438 C.3     1  UNL1        0.1538
     31 N         138.4744  138.5999  164.7657 N.ar    1  UNL1       -0.1632
     32 C         138.4963  139.3489  163.4663 C.ar    1  UNL1        0.1686
     33 C         138.3738  138.7455  162.0985 C.2     1  UNL1        0.2635
     34 N         137.1600  139.0234  161.2622 N.am    1  UNL1       -0.3240
     35 O         139.4651  137.8641  161.5671 O.2     1  UNL1       -0.2686
     36 H         136.4438  139.6018  161.6109 H       1  UNL1        0.1453
     37 H         137.0796  138.6273  160.3644 H       1  UNL1        0.1453
@<TRIPOS>BOND
     1    16    17    1
     2    17    18   ar
     3    18    19   ar
     4    19     7    1
     5     7     8   ar
     6     8     9   ar
     7     9    10   ar
     8    10    11   ar
     9     1    11    1
    10     1     2    1
    11     2     3    1
    12     3     4    1
    13     4     5    1
    14     5     6    1
    15     6    23    1
    16    23    24    2
    17    23    25   am
    18    25    27    1
    19    27    28   ar
    20    28    29   ar
    21    29    30    1
    22    29    31   ar
    23    31    32   ar
    24    32    33    1
    25    33    34   am
    26    33    35    2
    27    11    12   ar
    28    12    13   ar
    29    13    14   ar
    30    14    15   ar
    31    19    20   ar
    32    20    21   ar
    33    21    17   ar
    34    15     7   ar
    35    14    10   ar
    36     6     1    1
    37    32    27   ar
    38    25    26    1
    39    34    36    1
    40    34    37    1
    41    21    22    1
