@<TRIPOS>MOLECULE
*****
 32 36 0 0 0
SMALL
GASTEIGER

@<TRIPOS>ATOM
      1 C         143.1538  138.2585  159.8381 C.ar    1  UNL1        0.1233
      2 C         142.7172  137.0244  159.1056 C.ar    1  UNL1        0.1180
      3 N         142.9411  137.2516  157.6399 N.ar    1  UNL1       -0.2233
      4 N         143.5161  138.6261  157.4665 N.ar    1  UNL1       -0.0634
      5 N         143.6476  139.2484  158.8250 N.ar    1  UNL1       -0.1287
      6 C         142.6424  136.2757  156.5407 C.3     1  UNL1        0.1834
      7 C         143.4743  135.0275  156.5348 C.3     1  UNL1        0.0386
      8 C         143.4204  133.8724  155.5794 C.3     1  UNL1        0.0301
      9 C         142.5216  133.6800  154.3940 C.ar    1  UNL1       -0.0084
     10 C         142.7965  132.3772  153.7034 C.ar    1  UNL1       -0.0030
     11 C         142.0043  131.9897  152.4901 C.ar    1  UNL1       -0.0002
     12 C         140.9371  132.9051  151.9674 C.ar    1  UNL1        0.0013
     13 C         140.6623  134.2080  152.6579 C.ar    1  UNL1        0.0146
     14 C         141.4545  134.5955  153.8712 C.ar    1  UNL1        0.0499
     15 N         141.0227  135.9292  154.4048 N.am    1  UNL1       -0.2556
     16 C         139.9159  136.6045  153.6505 C.3     1  UNL1        0.1201
     17 C         141.5513  136.6771  155.5928 C.2     1  UNL1        0.2518
     18 O         140.9032  138.0012  155.8694 O.2     1  UNL1       -0.2724
     19 C         144.1471  139.4420  163.4935 C.ar    1  UNL1        0.1547
     20 C         144.1958  139.2344  162.0088 C.ar    1  UNL1        0.0400
     21 C         143.1052  138.4662  161.3228 C.ar    1  UNL1        0.0241
     22 C         141.9661  137.9056  162.1216 C.ar    1  UNL1        0.0033
     23 C         141.9175  138.1133  163.6063 C.ar    1  UNL1        0.0207
     24 C         143.0080  138.8814  164.2923 C.ar    1  UNL1        0.0994
     25 N         142.9593  139.0891  165.7771 N.ar    1  UNL1       -0.2839
     26 C         143.5309  138.1694  166.8152 C.ar    1  UNL1        0.1826
     27 N         143.2553  138.7648  168.1640 N.ar    1  UNL1       -0.2280
     28 C         142.5135  140.0524  167.9597 C.ar    1  UNL1        0.0786
     29 C         142.0381  140.9772  169.0408 C.3     1  UNL1        0.0538
     30 C         142.3305  140.2528  166.4845 C.ar    1  UNL1        0.0963
     31 C         145.6931  141.5261  163.6218 C.3     1  UNL1        0.2525
     32 O         145.2377  140.2102  164.1795 O.3     1  UNL1       -0.4700
@<TRIPOS>BOND
     1    31    32    1
     2    32    19    1
     3    19    20   ar
     4    20    21   ar
     5    21     1    1
     6     1     2   ar
     7     2     3   ar
     8     3     6    1
     9     6     7    1
    10     7     8    1
    11     8     9    1
    12     9    10   ar
    13    10    11   ar
    14    11    12   ar
    15    12    13   ar
    16    13    14   ar
    17    14    15    1
    18    15    16    1
    19    15    17   am
    20    17    18    2
    21     3     4   ar
    22     4     5   ar
    23    21    22   ar
    24    22    23   ar
    25    23    24   ar
    26    24    25    1
    27    25    26   ar
    28    26    27   ar
    29    27    28   ar
    30    28    29    1
    31    28    30   ar
    32    24    19   ar
    33    30    25   ar
    34     5     1   ar
    35    17     6    1
    36    14     9   ar
@<TRIPOS>MOLECULE
*****
 32 36 0 0 0
SMALL
GASTEIGER

@<TRIPOS>ATOM
      1 C         142.2719  137.7446  157.6141 C.ar    1  UNL1        0.1233
      2 C         142.0932  136.2866  157.3104 C.ar    1  UNL1        0.1180
      3 N         143.1671  135.8791  156.3456 N.ar    1  UNL1       -0.2233
      4 N         144.0094  137.0852  156.0531 N.ar    1  UNL1       -0.0634
      5 N         143.4561  138.2382  156.8371 N.ar    1  UNL1       -0.1287
      6 C         143.3640  134.5064  155.7738 C.3     1  UNL1        0.1834
      7 C         144.2188  133.5794  156.5863 C.3     1  UNL1        0.0386
      8 C         144.6008  132.1593  156.2906 C.3     1  UNL1        0.0301
      9 C         144.2224  131.3154  155.1097 C.ar    1  UNL1       -0.0084
     10 C         144.8199  129.9427  155.2030 C.ar    1  UNL1       -0.0030
     11 C         144.5635  128.9379  154.1193 C.ar    1  UNL1       -0.0002
     12 C         143.7096  129.3058  152.9422 C.ar    1  UNL1        0.0013
     13 C         143.1121  130.6784  152.8488 C.ar    1  UNL1        0.0146
     14 C         143.3685  131.6832  153.9326 C.ar    1  UNL1        0.0499
     15 N         142.6821  132.9858  153.6458 N.am    1  UNL1       -0.2556
     16 C         141.8935  133.0390  152.3709 C.3     1  UNL1        0.1201
     17 C         142.6801  134.2423  154.4651 C.2     1  UNL1        0.2518
     18 O         141.8897  135.3856  153.9014 O.2     1  UNL1       -0.2724
     19 C         139.1694  139.7655  159.0423 C.ar    1  UNL1        0.1547
     20 C         140.0247  138.9452  158.1230 C.ar    1  UNL1        0.0400
     21 C         141.4164  138.5649  158.5335 C.ar    1  UNL1        0.0241
     22 C         141.9527  139.0050  159.8634 C.ar    1  UNL1        0.0033
     23 C         141.0973  139.8253  160.7828 C.ar    1  UNL1        0.0207
     24 C         139.7057  140.2056  160.3723 C.ar    1  UNL1        0.0994
     25 N         138.8502  141.0260  161.2917 N.ar    1  UNL1       -0.2839
     26 C         137.7012  140.5201  162.1126 C.ar    1  UNL1        0.1826
     27 N         137.1346  141.6777  162.8798 N.ar    1  UNL1       -0.2280
     28 C         137.9333  142.8991  162.5332 C.ar    1  UNL1        0.0786
     29 C         137.7108  144.2807  163.0733 C.3     1  UNL1        0.0538
     30 C         138.9937  142.4963  161.5517 C.ar    1  UNL1        0.0963
     31 C         137.5601  140.9912  157.4120 C.3     1  UNL1        0.2525
     32 O         137.7777  140.1458  158.6318 O.3     1  UNL1       -0.4700
@<TRIPOS>BOND
     1    31    32    1
     2    32    19    1
     3    19    20   ar
     4    20    21   ar
     5    21     1    1
     6     1     2   ar
     7     2     3   ar
     8     3     6    1
     9     6     7    1
    10     7     8    1
    11     8     9    1
    12     9    10   ar
    13    10    11   ar
    14    11    12   ar
    15    12    13   ar
    16    13    14   ar
    17    14    15    1
    18    15    16    1
    19    15    17   am
    20    17    18    2
    21     3     4   ar
    22     4     5   ar
    23    21    22   ar
    24    22    23   ar
    25    23    24   ar
    26    24    25    1
    27    25    26   ar
    28    26    27   ar
    29    27    28   ar
    30    28    29    1
    31    28    30   ar
    32    24    19   ar
    33    30    25   ar
    34     5     1   ar
    35    17     6    1
    36    14     9   ar
@<TRIPOS>MOLECULE
*****
 32 36 0 0 0
SMALL
GASTEIGER

@<TRIPOS>ATOM
      1 C         140.3863  139.8712  160.2554 C.ar    1  UNL1        0.1233
      2 C         140.6124  139.5820  161.7098 C.ar    1  UNL1        0.1180
      3 N         140.1172  140.7577  162.4987 N.ar    1  UNL1       -0.2233
      4 N         139.5850  141.7735  161.5319 N.ar    1  UNL1       -0.0634
      5 N         139.7512  141.2257  160.1455 N.ar    1  UNL1       -0.1287
      6 C         140.1487  140.8936  163.9922 C.3     1  UNL1        0.1834
      7 C         141.0626  141.9546  164.5300 C.3     1  UNL1        0.0386
      8 C         141.3156  142.3345  165.9589 C.3     1  UNL1        0.0301
      9 C         140.7172  141.7475  167.2028 C.ar    1  UNL1       -0.0084
     10 C         141.2441  142.4213  168.4350 C.ar    1  UNL1       -0.0030
     11 C         140.7718  141.9830  169.7896 C.ar    1  UNL1       -0.0002
     12 C         139.7725  140.8710  169.9119 C.ar    1  UNL1        0.0013
     13 C         139.2457  140.1972  168.6796 C.ar    1  UNL1        0.0146
     14 C         139.7180  140.6355  167.3251 C.ar    1  UNL1        0.0499
     15 N         139.0704  139.8358  166.2337 N.am    1  UNL1       -0.2556
     16 C         138.1033  138.7819  166.6852 C.3     1  UNL1        0.1201
     17 C         139.2620  139.9507  164.7504 C.2     1  UNL1        0.2518
     18 O         138.4612  138.9965  163.9149 O.2     1  UNL1       -0.2724
     19 C         140.0079  137.5808  157.0367 C.ar    1  UNL1        0.1547
     20 C         139.6600  138.4869  158.1802 C.ar    1  UNL1        0.0400
     21 C         140.7341  138.9650  159.1118 C.ar    1  UNL1        0.0241
     22 C         142.1560  138.5370  158.8997 C.ar    1  UNL1        0.0033
     23 C         142.5038  137.6308  157.7561 C.ar    1  UNL1        0.0207
     24 C         141.4298  137.1527  156.8246 C.ar    1  UNL1        0.0994
     25 N         141.7776  136.2465  155.6809 N.ar    1  UNL1       -0.2839
     26 C         141.9802  136.6647  154.2547 C.ar    1  UNL1        0.1826
     27 N         142.3117  135.4397  153.4552 N.ar    1  UNL1       -0.2280
     28 C         142.3141  134.2644  154.3871 C.ar    1  UNL1        0.0786
     29 C         142.5970  132.8405  154.0098 C.3     1  UNL1        0.0538
     30 C         141.9840  134.7630  155.7628 C.ar    1  UNL1        0.0963
     31 C         138.5377  137.9392  154.9248 C.3     1  UNL1        0.2525
     32 O         138.9338  137.1026  156.1051 O.3     1  UNL1       -0.4700
@<TRIPOS>BOND
     1    31    32    1
     2    32    19    1
     3    19    20   ar
     4    20    21   ar
     5    21     1    1
     6     1     2   ar
     7     2     3   ar
     8     3     6    1
     9     6     7    1
    10     7     8    1
    11     8     9    1
    12     9    10   ar
    13    10    11   ar
    14    11    12   ar
    15    12    13   ar
    16    13    14   ar
    17    14    15    1
    18    15    16    1
    19    15    17   am
    20    17    18    2
    21     3     4   ar
    22     4     5   ar
    23    21    22   ar
    24    22    23   ar
    25    23    24   ar
    26    24    25    1
    27    25    26   ar
    28    26    27   ar
    29    27    28   ar
    30    28    29    1
    31    28    30   ar
    32    24    19   ar
    33    30    25   ar
    34     5     1   ar
    35    17     6    1
    36    14     9   ar
@<TRIPOS>MOLECULE
*****
 32 36 0 0 0
SMALL
GASTEIGER

@<TRIPOS>ATOM
      1 C         142.9936  138.0154  157.2229 C.ar    1  UNL1        0.1233
      2 C         142.6437  136.6025  157.5855 C.ar    1  UNL1        0.1180
      3 N         143.4242  135.6871  156.6895 N.ar    1  UNL1       -0.2233
      4 N         144.2565  136.5342  155.7731 N.ar    1  UNL1       -0.0634
      5 N         143.9903  137.9732  156.1027 N.ar    1  UNL1       -0.1287
      6 C         143.3802  134.1879  156.7068 C.3     1  UNL1        0.1834
      7 C         144.4063  133.5166  157.5710 C.3     1  UNL1        0.0386
      8 C         144.6214  132.0498  157.7994 C.3     1  UNL1        0.0301
      9 C         143.8638  130.8920  157.2202 C.ar    1  UNL1       -0.0084
     10 C         144.4057  129.5821  157.7106 C.ar    1  UNL1       -0.0030
     11 C         143.7876  128.2953  157.2502 C.ar    1  UNL1       -0.0002
     12 C         142.6276  128.3183  156.2995 C.ar    1  UNL1        0.0013
     13 C         142.0857  129.6282  155.8091 C.ar    1  UNL1        0.0146
     14 C         142.7038  130.9150  156.2695 C.ar    1  UNL1        0.0499
     15 N         142.0150  132.1016  155.6631 N.am    1  UNL1       -0.2556
     16 C         140.8744  131.7904  154.7401 C.3     1  UNL1        0.1201
     17 C         142.3160  133.5581  155.8577 C.2     1  UNL1        0.2518
     18 O         141.4366  134.5109  155.1036 O.2     1  UNL1       -0.2724
     19 C         142.8181  141.5988  158.9193 C.ar    1  UNL1        0.1547
     20 C         143.3685  140.3612  158.2749 C.ar    1  UNL1        0.0400
     21 C         142.4433  139.2531  157.8673 C.ar    1  UNL1        0.0241
     22 C         140.9678  139.3827  158.1040 C.ar    1  UNL1        0.0033
     23 C         140.4175  140.6204  158.7484 C.ar    1  UNL1        0.0207
     24 C         141.3426  141.7284  159.1560 C.ar    1  UNL1        0.0994
     25 N         140.7922  142.9662  159.8004 N.ar    1  UNL1       -0.2839
     26 C         140.2341  144.1597  159.0836 C.ar    1  UNL1        0.1826
     27 N         139.8003  145.1588  160.1150 N.ar    1  UNL1       -0.2280
     28 C         140.0904  144.5827  161.4692 C.ar    1  UNL1        0.0786
     29 C         139.8157  145.2454  162.7865 C.3     1  UNL1        0.0538
     30 C         140.7035  143.2276  161.2748 C.ar    1  UNL1        0.0963
     31 C         144.5789  142.5690  160.5650 C.3     1  UNL1        0.2525
     32 O         143.7433  142.7069  159.3270 O.3     1  UNL1       -0.4700
@<TRIPOS>BOND
     1    31    32    1
     2    32    19    1
     3    19    20   ar
     4    20    21   ar
     5    21     1    1
     6     1     2   ar
     7     2     3   ar
     8     3     6    1
     9     6     7    1
    10     7     8    1
    11     8     9    1
    12     9    10   ar
    13    10    11   ar
    14    11    12   ar
    15    12    13   ar
    16    13    14   ar
    17    14    15    1
    18    15    16    1
    19    15    17   am
    20    17    18    2
    21     3     4   ar
    22     4     5   ar
    23    21    22   ar
    24    22    23   ar
    25    23    24   ar
    26    24    25    1
    27    25    26   ar
    28    26    27   ar
    29    27    28   ar
    30    28    29    1
    31    28    30   ar
    32    24    19   ar
    33    30    25   ar
    34     5     1   ar
    35    17     6    1
    36    14     9   ar
@<TRIPOS>MOLECULE
*****
 32 36 0 0 0
SMALL
GASTEIGER

@<TRIPOS>ATOM
      1 C         142.9057  137.2839  157.4280 C.ar    1  UNL1        0.1233
      2 C         142.6218  137.5837  158.8700 C.ar    1  UNL1        0.1180
      3 N         143.0707  138.9875  159.1488 N.ar    1  UNL1       -0.2233
      4 N         143.6320  139.5553  157.8789 N.ar    1  UNL1       -0.0634
      5 N         143.5300  138.5024  156.8154 N.ar    1  UNL1       -0.1287
      6 C         142.9750  139.6987  160.4660 C.3     1  UNL1        0.1834
      7 C         144.1545  139.5390  161.3790 C.3     1  UNL1        0.0386
      8 C         144.3627  140.1167  162.7475 C.3     1  UNL1        0.0301
      9 C         143.4430  140.9967  163.5411 C.ar    1  UNL1       -0.0084
     10 C         144.0377  141.3528  164.8713 C.ar    1  UNL1       -0.0030
     11 C         143.2773  142.2285  165.8226 C.ar    1  UNL1       -0.0002
     12 C         141.9222  142.7481  165.4436 C.ar    1  UNL1        0.0013
     13 C         141.3275  142.3921  164.1134 C.ar    1  UNL1        0.0146
     14 C         142.0879  141.5164  163.1621 C.ar    1  UNL1        0.0499
     15 N         141.3178  141.2844  161.8960 N.am    1  UNL1       -0.2556
     16 C         139.9754  141.9493  161.8196 C.3     1  UNL1        0.1201
     17 C         141.7126  140.4755  160.6961 C.2     1  UNL1        0.2518
     18 O         140.7128  140.4384  159.5785 O.2     1  UNL1       -0.2724
     19 C         142.9916  133.4342  156.4677 C.ar    1  UNL1        0.1547
     20 C         143.2813  134.7257  157.1733 C.ar    1  UNL1        0.0400
     21 C         142.6160  135.9923  156.7224 C.ar    1  UNL1        0.0241
     22 C         141.6612  135.9672  155.5659 C.ar    1  UNL1        0.0033
     23 C         141.3716  134.6756  154.8603 C.ar    1  UNL1        0.0207
     24 C         142.0368  133.4091  155.3112 C.ar    1  UNL1        0.0994
     25 N         141.7471  132.1175  154.6056 N.ar    1  UNL1       -0.2839
     26 C         142.4795  131.5817  153.4112 C.ar    1  UNL1        0.1826
     27 N         141.8592  130.2681  153.0380 N.ar    1  UNL1       -0.2280
     28 C         140.7434  129.9918  154.0015 C.ar    1  UNL1        0.0786
     29 C         139.8532  128.7846  153.9971 C.3     1  UNL1        0.0538
     30 C         140.6741  131.1349  154.9704 C.ar    1  UNL1        0.0963
     31 C         144.9763  131.7632  156.3310 C.3     1  UNL1        0.2525
     32 O         143.6569  132.1676  156.9187 O.3     1  UNL1       -0.4700
@<TRIPOS>BOND
     1    31    32    1
     2    32    19    1
     3    19    20   ar
     4    20    21   ar
     5    21     1    1
     6     1     2   ar
     7     2     3   ar
     8     3     6    1
     9     6     7    1
    10     7     8    1
    11     8     9    1
    12     9    10   ar
    13    10    11   ar
    14    11    12   ar
    15    12    13   ar
    16    13    14   ar
    17    14    15    1
    18    15    16    1
    19    15    17   am
    20    17    18    2
    21     3     4   ar
    22     4     5   ar
    23    21    22   ar
    24    22    23   ar
    25    23    24   ar
    26    24    25    1
    27    25    26   ar
    28    26    27   ar
    29    27    28   ar
    30    28    29    1
    31    28    30   ar
    32    24    19   ar
    33    30    25   ar
    34     5     1   ar
    35    17     6    1
    36    14     9   ar
@<TRIPOS>MOLECULE
*****
 32 36 0 0 0
SMALL
GASTEIGER

@<TRIPOS>ATOM
      1 C         140.6997  139.7248  160.2945 C.ar    1  UNL1        0.1233
      2 C         140.8251  139.3329  161.7369 C.ar    1  UNL1        0.1180
      3 N         140.4741  140.5272  162.5739 N.ar    1  UNL1       -0.2233
      4 N         140.1318  141.6571  161.6487 N.ar    1  UNL1       -0.0634
      5 N         140.2711  141.1612  160.2400 N.ar    1  UNL1       -0.1287
      6 C         140.4668  140.5819  164.0729 C.3     1  UNL1        0.1834
      7 C         139.2888  139.9378  164.7419 C.3     1  UNL1        0.0386
      8 C         138.9916  139.8263  166.2079 C.3     1  UNL1        0.0301
      9 C         139.7988  140.3311  167.3670 C.ar    1  UNL1       -0.0084
     10 C         139.1405  140.0079  168.6755 C.ar    1  UNL1       -0.0030
     11 C         139.7862  140.4259  169.9633 C.ar    1  UNL1       -0.0002
     12 C         141.0901  141.1670  169.9426 C.ar    1  UNL1        0.0013
     13 C         141.7484  141.4902  168.6341 C.ar    1  UNL1        0.0146
     14 C         141.1028  141.0723  167.3464 C.ar    1  UNL1        0.0499
     15 N         141.9215  141.4916  166.1615 N.am    1  UNL1       -0.2556
     16 C         143.1911  142.2263  166.4749 C.3     1  UNL1        0.1201
     17 C         141.6385  141.2734  164.7047 C.2     1  UNL1        0.2518
     18 O         142.6625  141.8187  163.7539 O.2     1  UNL1       -0.2724
     19 C         140.0840  137.5511  157.0317 C.ar    1  UNL1        0.1547
     20 C         139.8261  138.4396  158.2123 C.ar    1  UNL1        0.0400
     21 C         140.9575  138.8362  159.1138 C.ar    1  UNL1        0.0241
     22 C         142.3467  138.3441  158.8347 C.ar    1  UNL1        0.0033
     23 C         142.6045  137.4555  157.6541 C.ar    1  UNL1        0.0207
     24 C         141.4732  137.0590  156.7526 C.ar    1  UNL1        0.0994
     25 N         141.7311  136.1704  155.5719 N.ar    1  UNL1       -0.2839
     26 C         141.9444  136.6228  154.1578 C.ar    1  UNL1        0.1826
     27 N         142.1661  135.4054  153.3101 N.ar    1  UNL1       -0.2280
     28 C         142.0898  134.2005  154.2002 C.ar    1  UNL1        0.0786
     29 C         142.2537  132.7734  153.7684 C.3     1  UNL1        0.0538
     30 C         141.8210  134.6733  155.5982 C.ar    1  UNL1        0.0963
     31 C         138.5857  138.0207  154.9618 C.3     1  UNL1        0.2525
     32 O         138.9526  137.1546  156.1302 O.3     1  UNL1       -0.4700
@<TRIPOS>BOND
     1    31    32    1
     2    32    19    1
     3    19    20   ar
     4    20    21   ar
     5    21     1    1
     6     1     2   ar
     7     2     3   ar
     8     3     6    1
     9     6     7    1
    10     7     8    1
    11     8     9    1
    12     9    10   ar
    13    10    11   ar
    14    11    12   ar
    15    12    13   ar
    16    13    14   ar
    17    14    15    1
    18    15    16    1
    19    15    17   am
    20    17    18    2
    21     3     4   ar
    22     4     5   ar
    23    21    22   ar
    24    22    23   ar
    25    23    24   ar
    26    24    25    1
    27    25    26   ar
    28    26    27   ar
    29    27    28   ar
    30    28    29    1
    31    28    30   ar
    32    24    19   ar
    33    30    25   ar
    34     5     1   ar
    35    17     6    1
    36    14     9   ar
@<TRIPOS>MOLECULE
*****
 32 36 0 0 0
SMALL
GASTEIGER

@<TRIPOS>ATOM
      1 C         143.1679  139.7231  160.1991 C.ar    1  UNL1        0.1233
      2 C         142.9988  140.2876  161.5784 C.ar    1  UNL1        0.1180
      3 N         142.3969  139.2215  162.4451 N.ar    1  UNL1       -0.2233
      4 N         142.1941  137.9980  161.6013 N.ar    1  UNL1       -0.0634
      5 N         142.6705  138.3080  160.2132 N.ar    1  UNL1       -0.1287
      6 C         142.0576  139.3553  163.9001 C.3     1  UNL1        0.1834
      7 C         143.1879  139.1159  164.8567 C.3     1  UNL1        0.0386
      8 C         143.1725  139.1730  166.3555 C.3     1  UNL1        0.0301
      9 C         142.0231  139.4834  167.2680 C.ar    1  UNL1       -0.0084
     10 C         142.4382  139.4343  168.7085 C.ar    1  UNL1       -0.0030
     11 C         141.4353  139.7152  169.7880 C.ar    1  UNL1       -0.0002
     12 C         140.0173  140.0453  169.4269 C.ar    1  UNL1        0.0013
     13 C         139.6022  140.0944  167.9863 C.ar    1  UNL1        0.0146
     14 C         140.6051  139.8135  166.9069 C.ar    1  UNL1        0.0499
     15 N         139.9864  139.9147  165.5441 N.am    1  UNL1       -0.2556
     16 C         138.5284  140.2663  165.5159 C.3     1  UNL1        0.1201
     17 C         140.6327  139.7108  164.2060 C.2     1  UNL1        0.2518
     18 O         139.7357  139.8854  163.0165 O.2     1  UNL1       -0.2724
     19 C         144.3065  140.5125  156.4802 C.ar    1  UNL1        0.1547
     20 C         143.7396  139.7890  157.6655 C.ar    1  UNL1        0.0400
     21 C         143.7347  140.4466  159.0137 C.ar    1  UNL1        0.0241
     22 C         144.2967  141.8277  159.1765 C.ar    1  UNL1        0.0033
     23 C         144.8636  142.5513  157.9911 C.ar    1  UNL1        0.0207
     24 C         144.8685  141.8937  156.6430 C.ar    1  UNL1        0.0994
     25 N         145.4354  142.6173  155.4576 N.ar    1  UNL1       -0.2839
     26 C         144.6460  143.3221  154.3945 C.ar    1  UNL1        0.1826
     27 N         145.6140  143.9035  153.4072 N.ar    1  UNL1       -0.2280
     28 C         147.0016  143.5580  153.8599 C.ar    1  UNL1        0.0786
     29 C         148.2760  143.9402  153.1671 C.3     1  UNL1        0.0538
     30 C         146.8913  142.7630  155.1271 C.ar    1  UNL1        0.0963
     31 C         144.8610  138.4680  154.9761 C.3     1  UNL1        0.2525
     32 O         144.3114  139.8549  155.1321 O.3     1  UNL1       -0.4700
@<TRIPOS>BOND
     1    31    32    1
     2    32    19    1
     3    19    20   ar
     4    20    21   ar
     5    21     1    1
     6     1     2   ar
     7     2     3   ar
     8     3     6    1
     9     6     7    1
    10     7     8    1
    11     8     9    1
    12     9    10   ar
    13    10    11   ar
    14    11    12   ar
    15    12    13   ar
    16    13    14   ar
    17    14    15    1
    18    15    16    1
    19    15    17   am
    20    17    18    2
    21     3     4   ar
    22     4     5   ar
    23    21    22   ar
    24    22    23   ar
    25    23    24   ar
    26    24    25    1
    27    25    26   ar
    28    26    27   ar
    29    27    28   ar
    30    28    29    1
    31    28    30   ar
    32    24    19   ar
    33    30    25   ar
    34     5     1   ar
    35    17     6    1
    36    14     9   ar
@<TRIPOS>MOLECULE
*****
 32 36 0 0 0
SMALL
GASTEIGER

@<TRIPOS>ATOM
      1 C         142.3483  137.8035  157.2655 C.ar    1  UNL1        0.1233
      2 C         141.9585  136.4302  156.8049 C.ar    1  UNL1        0.1180
      3 N         143.0427  135.9185  155.9035 N.ar    1  UNL1       -0.2233
      4 N         144.1026  136.9755  155.8070 N.ar    1  UNL1       -0.0634
      5 N         143.6734  138.1405  156.6488 N.ar    1  UNL1       -0.1287
      6 C         143.0634  134.5840  155.2187 C.3     1  UNL1        0.1834
      7 C         142.3444  134.5159  153.9040 C.3     1  UNL1        0.0386
      8 C         142.1848  133.3411  152.9852 C.3     1  UNL1        0.0301
      9 C         142.7048  131.9442  153.1540 C.ar    1  UNL1       -0.0084
     10 C         142.3187  131.0721  151.9964 C.ar    1  UNL1       -0.0030
     11 C         142.7406  129.6329  151.9681 C.ar    1  UNL1       -0.0002
     12 C         143.5486  129.0660  153.0976 C.ar    1  UNL1        0.0013
     13 C         143.9347  129.9381  154.2553 C.ar    1  UNL1        0.0146
     14 C         143.5128  131.3772  154.2835 C.ar    1  UNL1        0.0499
     15 N         144.0004  132.0671  155.5230 N.am    1  UNL1       -0.2556
     16 C         144.7927  131.2173  156.4718 C.3     1  UNL1        0.1201
     17 C         143.8004  133.4942  155.9393 C.2     1  UNL1        0.2518
     18 O         144.4192  133.8829  157.2492 O.2     1  UNL1       -0.2724
     19 C         141.4387  140.6597  159.8664 C.ar    1  UNL1        0.1547
     20 C         142.2344  139.7783  158.9500 C.ar    1  UNL1        0.0400
     21 C         141.5526  138.6850  158.1819 C.ar    1  UNL1        0.0241
     22 C         140.0751  138.4732  158.3303 C.ar    1  UNL1        0.0033
     23 C         139.2794  139.3547  159.2468 C.ar    1  UNL1        0.0207
     24 C         139.9612  140.4479  160.0148 C.ar    1  UNL1        0.0994
     25 N         139.1654  141.3294  160.9312 N.ar    1  UNL1       -0.2839
     26 C         138.3776  142.5398  160.5261 C.ar    1  UNL1        0.1826
     27 N         137.7431  143.1136  161.7582 N.ar    1  UNL1       -0.2280
     28 C         138.1387  142.2579  162.9248 C.ar    1  UNL1        0.0786
     29 C         137.7275  142.4679  164.3520 C.3     1  UNL1        0.0538
     30 C         139.0178  141.1551  162.4137 C.ar    1  UNL1        0.0963
     31 C         142.7599  141.4535  161.9579 C.3     1  UNL1        0.2525
     32 O         142.1205  141.7529  160.6344 O.3     1  UNL1       -0.4700
@<TRIPOS>BOND
     1    31    32    1
     2    32    19    1
     3    19    20   ar
     4    20    21   ar
     5    21     1    1
     6     1     2   ar
     7     2     3   ar
     8     3     6    1
     9     6     7    1
    10     7     8    1
    11     8     9    1
    12     9    10   ar
    13    10    11   ar
    14    11    12   ar
    15    12    13   ar
    16    13    14   ar
    17    14    15    1
    18    15    16    1
    19    15    17   am
    20    17    18    2
    21     3     4   ar
    22     4     5   ar
    23    21    22   ar
    24    22    23   ar
    25    23    24   ar
    26    24    25    1
    27    25    26   ar
    28    26    27   ar
    29    27    28   ar
    30    28    29    1
    31    28    30   ar
    32    24    19   ar
    33    30    25   ar
    34     5     1   ar
    35    17     6    1
    36    14     9   ar
@<TRIPOS>MOLECULE
*****
 32 36 0 0 0
SMALL
GASTEIGER

@<TRIPOS>ATOM
      1 C         142.7810  137.6307  157.8389 C.ar    1  UNL1        0.1233
      2 C         142.2107  137.9354  159.1923 C.ar    1  UNL1        0.1180
      3 N         142.7701  139.2513  159.6456 N.ar    1  UNL1       -0.2233
      4 N         143.6862  139.7599  158.5722 N.ar    1  UNL1       -0.0634
      5 N         143.6929  138.7583  157.4556 N.ar    1  UNL1       -0.1287
      6 C         142.4668  139.9380  160.9442 C.3     1  UNL1        0.1834
      7 C         141.4172  141.0080  160.8849 C.3     1  UNL1        0.0386
      8 C         140.8947  141.8681  161.9972 C.3     1  UNL1        0.0301
      9 C         141.2928  141.8708  163.4435 C.ar    1  UNL1       -0.0084
     10 C         140.5206  142.8939  164.2225 C.ar    1  UNL1       -0.0030
     11 C         140.7674  143.0602  165.6927 C.ar    1  UNL1       -0.0002
     12 C         141.7862  142.2033  166.3838 C.ar    1  UNL1        0.0013
     13 C         142.5584  141.1802  165.6048 C.ar    1  UNL1        0.0146
     14 C         142.3116  141.0139  164.1346 C.ar    1  UNL1        0.0499
     15 N         143.1841  139.9428  163.5502 N.am    1  UNL1       -0.2556
     16 C         144.1099  139.2602  164.5130 C.3     1  UNL1        0.1201
     17 C         143.2532  139.4639  162.1304 C.2     1  UNL1        0.2518
     18 O         144.2388  138.3658  161.8610 O.2     1  UNL1       -0.2724
     19 C         142.9132  133.9061  156.4752 C.ar    1  UNL1        0.1547
     20 C         143.2038  135.1244  157.3005 C.ar    1  UNL1        0.0400
     21 C         142.4904  136.4123  157.0136 C.ar    1  UNL1        0.0241
     22 C         141.4865  136.4819  155.9013 C.ar    1  UNL1        0.0033
     23 C         141.1959  135.2635  155.0760 C.ar    1  UNL1        0.0207
     24 C         141.9092  133.9757  155.3630 C.ar    1  UNL1        0.0994
     25 N         141.6185  132.7573  154.5376 N.ar    1  UNL1       -0.2839
     26 C         142.1483  132.4768  153.1626 C.ar    1  UNL1        0.1826
     27 N         141.6043  131.1517  152.7177 N.ar    1  UNL1       -0.2280
     28 C         140.7383  130.6132  153.8176 C.ar    1  UNL1        0.0786
     29 C         139.9940  129.3110  153.7964 C.3     1  UNL1        0.0538
     30 C         140.7470  131.6055  154.9424 C.ar    1  UNL1        0.0963
     31 C         144.7749  132.5957  157.7270 C.3     1  UNL1        0.2525
     32 O         143.6265  132.6182  156.7622 O.3     1  UNL1       -0.4700
@<TRIPOS>BOND
     1    31    32    1
     2    32    19    1
     3    19    20   ar
     4    20    21   ar
     5    21     1    1
     6     1     2   ar
     7     2     3   ar
     8     3     6    1
     9     6     7    1
    10     7     8    1
    11     8     9    1
    12     9    10   ar
    13    10    11   ar
    14    11    12   ar
    15    12    13   ar
    16    13    14   ar
    17    14    15    1
    18    15    16    1
    19    15    17   am
    20    17    18    2
    21     3     4   ar
    22     4     5   ar
    23    21    22   ar
    24    22    23   ar
    25    23    24   ar
    26    24    25    1
    27    25    26   ar
    28    26    27   ar
    29    27    28   ar
    30    28    29    1
    31    28    30   ar
    32    24    19   ar
    33    30    25   ar
    34     5     1   ar
    35    17     6    1
    36    14     9   ar
