@<TRIPOS>MOLECULE
*****
 32 36 0 0 0
SMALL
GASTEIGER

@<TRIPOS>ATOM
      1 C         140.9517  141.9947  162.7776 C.ar    1  UNL1        0.0043
      2 C         141.4887  140.9517  161.8429 C.ar    1  UNL1        0.0343
      3 C         141.7631  141.2989  160.4096 C.ar    1  UNL1        0.1318
      4 N         141.5005  142.6890  159.9111 N.ar    1  UNL1       -0.2291
      5 C         140.9635  143.7321  160.8459 C.ar    1  UNL1        0.1017
      6 C         140.7009  145.1222  160.3475 C.ar    1  UNL1        0.1159
      7 N         140.1639  146.1652  161.2822 N.ar    1  UNL1       -0.2408
      8 C         139.8895  145.8181  162.7154 C.ar    1  UNL1        0.0990
      9 C         140.1521  144.4279  163.2139 C.ar    1  UNL1        0.0222
     10 C         140.6891  143.3849  162.2792 C.ar    1  UNL1        0.0209
     11 C         140.1284  140.9532  167.0773 C.ar    1  UNL1        0.1057
     12 C         139.1320  140.5951  166.0149 C.ar    1  UNL1        0.0183
     13 C         139.4064  140.9423  164.5817 C.ar    1  UNL1        0.0013
     14 C         140.6773  141.6476  164.2108 C.ar    1  UNL1        0.0002
     15 C         141.6738  142.0056  165.2733 C.ar    1  UNL1        0.0013
     16 C         141.3993  141.6584  166.7066 C.ar    1  UNL1        0.0183
     17 C         139.5795  140.2588  169.9438 C.3     1  UNL1        0.1816
     18 S         139.8540  140.6060  168.5106 S.O2    1  UNL1        0.0104
     19 O         138.9116  139.5260  168.0685 O.2     1  UNL1       -0.1686
     20 O         140.7963  141.6860  168.9527 O.2     1  UNL1       -0.1686
     21 N         142.3001  140.2559  159.4749 N.pl3   1  UNL1       -0.2881
     22 C         142.1703  138.8017  159.8194 C.3     1  UNL1        0.1242
     23 C         142.7074  137.7587  158.8846 C.3     1  UNL1        0.1636
     24 O         143.3741  138.1699  157.6054 O.3     1  UNL1       -0.3501
     25 C         143.5039  139.6240  157.2609 C.3     1  UNL1        0.1636
     26 C         142.9669  140.6670  158.1956 C.3     1  UNL1        0.1242
     27 C         140.9754  145.4694  158.9142 C.ar    1  UNL1        0.0945
     28 C         139.9651  145.9476  157.9138 C.ar    1  UNL1        0.0425
     29 C         140.6735  146.1730  156.6110 C.ar    1  UNL1        0.1215
     30 N         142.1217  145.8341  156.8062 N.ar    1  UNL1       -0.1710
     31 N         142.3082  145.3992  158.2296 N.ar    1  UNL1       -0.2742
     32 H         143.1565  145.1172  158.6421 H       1  UNL1        0.1890
@<TRIPOS>BOND
     1    17    18    1
     2    18    19    2
     3    18    20    2
     4    18    11    1
     5    11    12   ar
     6    12    13   ar
     7    13    14   ar
     8    14     1    1
     9     1     2   ar
    10     2     3   ar
    11     3    21    1
    12    21    22    1
    13    22    23    1
    14    23    24    1
    15    24    25    1
    16    25    26    1
    17     3     4   ar
    18     4     5   ar
    19     5     6   ar
    20     6    27    1
    21    27    28   ar
    22    28    29   ar
    23    29    30   ar
    24    30    31   ar
    25     6     7   ar
    26     7     8   ar
    27     8     9   ar
    28     9    10   ar
    29    14    15   ar
    30    15    16   ar
    31    16    11   ar
    32    10     1   ar
    33    26    21    1
    34    10     5   ar
    35    31    27   ar
    36    31    32    1
@<TRIPOS>MOLECULE
*****
 32 36 0 0 0
SMALL
GASTEIGER

@<TRIPOS>ATOM
      1 C         141.5587  142.3307  163.0518 C.ar    1  UNL1        0.0043
      2 C         141.9687  141.1316  162.2494 C.ar    1  UNL1        0.0343
      3 C         141.7955  141.1312  160.7594 C.ar    1  UNL1        0.1318
      4 N         141.2123  142.3300  160.0718 N.ar    1  UNL1       -0.2291
      5 C         140.8023  143.5292  160.8743 C.ar    1  UNL1        0.1017
      6 C         140.2190  144.7280  160.1867 C.ar    1  UNL1        0.1159
      7 N         139.8090  145.9271  160.9891 N.ar    1  UNL1       -0.2408
      8 C         139.9823  145.9275  162.4790 C.ar    1  UNL1        0.0990
      9 C         140.5655  144.7287  163.1666 C.ar    1  UNL1        0.0222
     10 C         140.9755  143.5295  162.3642 C.ar    1  UNL1        0.0209
     11 C         142.0784  142.3319  167.5216 C.ar    1  UNL1        0.1057
     12 C         143.2641  142.5485  166.6287 C.ar    1  UNL1        0.0183
     13 C         143.0908  142.5481  165.1388 C.ar    1  UNL1        0.0013
     14 C         141.7319  142.3311  164.5417 C.ar    1  UNL1        0.0002
     15 C         140.5463  142.1145  165.4347 C.ar    1  UNL1        0.0013
     16 C         140.7196  142.1149  166.9247 C.ar    1  UNL1        0.0183
     17 C         142.4249  142.3326  170.5016 C.3     1  UNL1        0.1816
     18 S         142.2517  142.3322  169.0117 S.O2    1  UNL1        0.0104
     19 O         140.8004  141.9929  169.1805 O.2     1  UNL1       -0.1686
     20 O         143.7030  142.6715  168.8428 O.2     1  UNL1       -0.1686
     21 N         142.2055  139.9320  159.9570 N.pl3   1  UNL1       -0.2881
     22 C         142.5713  138.6540  160.6519 C.3     1  UNL1        0.1242
     23 C         142.9813  137.4548  159.8494 C.3     1  UNL1        0.1636
     24 O         143.0255  137.5336  158.3522 O.3     1  UNL1       -0.3501
     25 C         142.6598  138.8117  157.6573 C.3     1  UNL1        0.1636
     26 C         142.2498  140.0108  158.4597 C.3     1  UNL1        0.1242
     27 C         140.0458  144.7276  158.6967 C.ar    1  UNL1        0.0945
     28 C         140.4235  145.8407  157.7649 C.ar    1  UNL1        0.0425
     29 C         140.0757  145.4151  156.3692 C.ar    1  UNL1        0.1215
     30 N         139.4830  144.0388  156.4385 N.ar    1  UNL1       -0.1710
     31 N         139.4646  143.6140  157.8770 N.ar    1  UNL1       -0.2742
     32 H         139.1298  142.7550  158.2224 H       1  UNL1        0.1890
@<TRIPOS>BOND
     1    17    18    1
     2    18    19    2
     3    18    20    2
     4    18    11    1
     5    11    12   ar
     6    12    13   ar
     7    13    14   ar
     8    14     1    1
     9     1     2   ar
    10     2     3   ar
    11     3    21    1
    12    21    22    1
    13    22    23    1
    14    23    24    1
    15    24    25    1
    16    25    26    1
    17     3     4   ar
    18     4     5   ar
    19     5     6   ar
    20     6    27    1
    21    27    28   ar
    22    28    29   ar
    23    29    30   ar
    24    30    31   ar
    25     6     7   ar
    26     7     8   ar
    27     8     9   ar
    28     9    10   ar
    29    14    15   ar
    30    15    16   ar
    31    16    11   ar
    32    10     1   ar
    33    26    21    1
    34    10     5   ar
    35    31    27   ar
    36    31    32    1
@<TRIPOS>MOLECULE
*****
 32 36 0 0 0
SMALL
GASTEIGER

@<TRIPOS>ATOM
      1 C         140.7588  141.1355  164.5363 C.ar    1  UNL1        0.0043
      2 C         140.5466  142.4199  163.7912 C.ar    1  UNL1        0.0343
      3 C         140.3913  142.4047  162.2993 C.ar    1  UNL1        0.1318
      4 N         140.4483  141.1051  161.5525 N.ar    1  UNL1       -0.2291
      5 C         140.6606  139.8206  162.2977 C.ar    1  UNL1        0.1017
      6 C         140.7175  138.5209  161.5510 C.ar    1  UNL1        0.1159
      7 N         140.9297  137.2365  162.2961 N.ar    1  UNL1       -0.2408
      8 C         141.0850  137.2518  163.7879 C.ar    1  UNL1        0.0990
      9 C         141.0280  138.5515  164.5347 C.ar    1  UNL1        0.0222
     10 C         140.8158  139.8359  163.7896 C.ar    1  UNL1        0.0209
     11 C         141.2245  141.1814  169.0119 C.ar    1  UNL1        0.1057
     12 C         142.3854  141.5423  168.1333 C.ar    1  UNL1        0.0183
     13 C         142.2302  141.5270  166.6415 C.ar    1  UNL1        0.0013
     14 C         140.9140  141.1508  166.0281 C.ar    1  UNL1        0.0002
     15 C         139.7530  140.7899  166.9067 C.ar    1  UNL1        0.0013
     16 C         139.9083  140.8052  168.3986 C.ar    1  UNL1        0.0183
     17 C         141.5350  141.2119  171.9956 C.3     1  UNL1        0.1816
     18 S         141.3797  141.1966  170.5038 S.O2    1  UNL1        0.0104
     19 O         139.9171  141.4938  170.6529 O.2     1  UNL1       -0.1686
     20 O         142.8424  140.8995  170.3547 O.2     1  UNL1       -0.1686
     21 N         140.1791  143.6891  161.5542 N.pl3   1  UNL1       -0.2881
     22 C         139.7994  144.9344  162.2991 C.3     1  UNL1        0.1242
     23 C         139.5871  146.2189  161.5539 C.3     1  UNL1        0.1636
     24 O         139.7547  146.2580  160.0639 O.3     1  UNL1       -0.3501
     25 C         140.1345  145.0127  159.3189 C.3     1  UNL1        0.1636
     26 C         140.3467  143.7283  160.0640 C.3     1  UNL1        0.1242
     27 C         140.5623  138.5057  160.0591 C.ar    1  UNL1        0.0945
     28 C         141.6570  138.2698  159.0611 C.ar    1  UNL1        0.0425
     29 C         141.0565  138.3420  157.6885 C.ar    1  UNL1        0.1215
     30 N         139.5905  138.6226  157.8381 N.ar    1  UNL1       -0.1710
     31 N         139.2852  138.7238  159.3032 N.ar    1  UNL1       -0.2742
     32 H         138.4016  138.9020  159.6992 H       1  UNL1        0.1890
@<TRIPOS>BOND
     1    17    18    1
     2    18    19    2
     3    18    20    2
     4    18    11    1
     5    11    12   ar
     6    12    13   ar
     7    13    14   ar
     8    14     1    1
     9     1     2   ar
    10     2     3   ar
    11     3    21    1
    12    21    22    1
    13    22    23    1
    14    23    24    1
    15    24    25    1
    16    25    26    1
    17     3     4   ar
    18     4     5   ar
    19     5     6   ar
    20     6    27    1
    21    27    28   ar
    22    28    29   ar
    23    29    30   ar
    24    30    31   ar
    25     6     7   ar
    26     7     8   ar
    27     8     9   ar
    28     9    10   ar
    29    14    15   ar
    30    15    16   ar
    31    16    11   ar
    32    10     1   ar
    33    26    21    1
    34    10     5   ar
    35    31    27   ar
    36    31    32    1
@<TRIPOS>MOLECULE
*****
 32 36 0 0 0
SMALL
GASTEIGER

@<TRIPOS>ATOM
      1 C         140.5967  139.8107  158.4142 C.ar    1  UNL1        0.0043
      2 C         140.8411  141.1428  157.7695 C.ar    1  UNL1        0.0343
      3 C         140.3992  142.4010  158.4566 C.ar    1  UNL1        0.1318
      4 N         139.7130  142.3268  159.7884 N.ar    1  UNL1       -0.2291
      5 C         139.4686  140.9946  160.4331 C.ar    1  UNL1        0.1017
      6 C         138.7824  140.9205  161.7648 C.ar    1  UNL1        0.1159
      7 N         138.5380  139.5884  162.4095 N.ar    1  UNL1       -0.2408
      8 C         138.9798  138.3304  161.7224 C.ar    1  UNL1        0.0990
      9 C         139.6660  138.4045  160.3907 C.ar    1  UNL1        0.0222
     10 C         139.9104  139.7366  159.7460 C.ar    1  UNL1        0.0209
     11 C         141.9221  136.0366  156.3529 C.ar    1  UNL1        0.1057
     12 C         140.5746  136.6224  156.0512 C.ar    1  UNL1        0.0183
     13 C         140.1327  137.8804  156.7383 C.ar    1  UNL1        0.0013
     14 C         141.0385  138.5527  157.7271 C.ar    1  UNL1        0.0002
     15 C         142.3860  137.9669  158.0288 C.ar    1  UNL1        0.0013
     16 C         142.8278  136.7088  157.3416 C.ar    1  UNL1        0.0183
     17 C         142.8057  133.5205  154.9786 C.3     1  UNL1        0.1816
     18 S         142.3639  134.7785  155.6657 S.O2    1  UNL1        0.0104
     19 O         141.0597  134.7242  154.9268 O.2     1  UNL1       -0.1686
     20 O         143.6681  134.8328  156.4047 O.2     1  UNL1       -0.1686
     21 N         140.6436  143.7331  157.8119 N.pl3   1  UNL1       -0.2881
     22 C         141.8484  144.5412  158.1935 C.3     1  UNL1        0.1242
     23 C         142.0927  145.8734  157.5487 C.3     1  UNL1        0.1636
     24 O         141.1324  146.3974  156.5225 O.3     1  UNL1       -0.3501
     25 C         139.9277  145.5893  156.1410 C.3     1  UNL1        0.1636
     26 C         139.6833  144.2571  156.7857 C.3     1  UNL1        0.1242
     27 C         138.3406  142.1786  162.4519 C.ar    1  UNL1        0.0945
     28 C         138.3334  142.4187  163.9326 C.ar    1  UNL1        0.0425
     29 C         137.8168  143.8059  164.1748 C.ar    1  UNL1        0.1215
     30 N         137.5046  144.4232  162.8438 N.ar    1  UNL1       -0.1710
     31 N         137.8283  143.4175  161.7790 N.ar    1  UNL1       -0.2742
     32 H         137.7231  143.5476  160.8088 H       1  UNL1        0.1890
@<TRIPOS>BOND
     1    17    18    1
     2    18    19    2
     3    18    20    2
     4    18    11    1
     5    11    12   ar
     6    12    13   ar
     7    13    14   ar
     8    14     1    1
     9     1     2   ar
    10     2     3   ar
    11     3    21    1
    12    21    22    1
    13    22    23    1
    14    23    24    1
    15    24    25    1
    16    25    26    1
    17     3     4   ar
    18     4     5   ar
    19     5     6   ar
    20     6    27    1
    21    27    28   ar
    22    28    29   ar
    23    29    30   ar
    24    30    31   ar
    25     6     7   ar
    26     7     8   ar
    27     8     9   ar
    28     9    10   ar
    29    14    15   ar
    30    15    16   ar
    31    16    11   ar
    32    10     1   ar
    33    26    21    1
    34    10     5   ar
    35    31    27   ar
    36    31    32    1
@<TRIPOS>MOLECULE
*****
 32 36 0 0 0
SMALL
GASTEIGER

@<TRIPOS>ATOM
      1 C         141.3342  141.6254  163.5200 C.ar    1  UNL1        0.0043
      2 C         141.7437  140.5462  162.5622 C.ar    1  UNL1        0.0343
      3 C         141.9102  140.8603  161.1049 C.ar    1  UNL1        0.1318
      4 N         141.6672  142.2537  160.6055 N.ar    1  UNL1       -0.2291
      5 C         141.2578  143.3330  161.5634 C.ar    1  UNL1        0.1017
      6 C         141.0148  144.7264  161.0640 C.ar    1  UNL1        0.1159
      7 N         140.6054  145.8056  162.0218 N.ar    1  UNL1       -0.2408
      8 C         140.4389  145.4915  163.4791 C.ar    1  UNL1        0.0990
      9 C         140.6818  144.0981  163.9785 C.ar    1  UNL1        0.0222
     10 C         141.0913  143.0188  163.0206 C.ar    1  UNL1        0.0209
     11 C         140.8348  140.6830  167.8918 C.ar    1  UNL1        0.1057
     12 C         142.1248  141.2629  167.3922 C.ar    1  UNL1        0.0183
     13 C         142.2913  141.5771  165.9349 C.ar    1  UNL1        0.0013
     14 C         141.1678  141.3113  164.9772 C.ar    1  UNL1        0.0002
     15 C         139.8778  140.7313  165.4769 C.ar    1  UNL1        0.0013
     16 C         139.7113  140.4172  166.9342 C.ar    1  UNL1        0.0183
     17 C         140.5020  140.0547  170.8063 C.3     1  UNL1        0.1816
     18 S         140.6684  140.3688  169.3491 S.O2    1  UNL1        0.0104
     19 O         141.7741  139.3595  169.2577 O.2     1  UNL1       -0.1686
     20 O         139.5626  141.3782  169.4404 O.2     1  UNL1       -0.1686
     21 N         142.3196  139.7810  160.1470 N.pl3   1  UNL1       -0.2881
     22 C         142.4899  140.0960  158.6904 C.3     1  UNL1        0.1242
     23 C         142.8994  139.0166  157.7325 C.3     1  UNL1        0.1636
     24 O         143.1385  137.6224  158.2313 O.3     1  UNL1       -0.3501
     25 C         142.9682  137.3074  159.6880 C.3     1  UNL1        0.1636
     26 C         142.5588  138.3867  160.6458 C.3     1  UNL1        0.1242
     27 C         141.1813  145.0405  159.6067 C.ar    1  UNL1        0.0945
     28 C         140.1531  145.6764  158.7188 C.ar    1  UNL1        0.0425
     29 C         140.7415  145.8028  157.3448 C.ar    1  UNL1        0.1215
     30 N         142.1334  145.2450  157.3836 N.ar    1  UNL1       -0.1710
     31 N         142.4052  144.7739  158.7815 N.ar    1  UNL1       -0.2742
     32 H         143.2403  144.3620  159.1013 H       1  UNL1        0.1890
@<TRIPOS>BOND
     1    17    18    1
     2    18    19    2
     3    18    20    2
     4    18    11    1
     5    11    12   ar
     6    12    13   ar
     7    13    14   ar
     8    14     1    1
     9     1     2   ar
    10     2     3   ar
    11     3    21    1
    12    21    22    1
    13    22    23    1
    14    23    24    1
    15    24    25    1
    16    25    26    1
    17     3     4   ar
    18     4     5   ar
    19     5     6   ar
    20     6    27    1
    21    27    28   ar
    22    28    29   ar
    23    29    30   ar
    24    30    31   ar
    25     6     7   ar
    26     7     8   ar
    27     8     9   ar
    28     9    10   ar
    29    14    15   ar
    30    15    16   ar
    31    16    11   ar
    32    10     1   ar
    33    26    21    1
    34    10     5   ar
    35    31    27   ar
    36    31    32    1
@<TRIPOS>MOLECULE
*****
 32 36 0 0 0
SMALL
GASTEIGER

@<TRIPOS>ATOM
      1 C         141.1036  141.7407  162.9726 C.ar    1  UNL1        0.0043
      2 C         141.2517  142.8977  162.0296 C.ar    1  UNL1        0.0343
      3 C         140.9883  142.7099  160.5648 C.ar    1  UNL1        0.1318
      4 N         140.5767  141.3651  160.0432 N.ar    1  UNL1       -0.2291
      5 C         140.4286  140.2081  160.9864 C.ar    1  UNL1        0.1017
      6 C         140.0170  138.8633  160.4647 C.ar    1  UNL1        0.1159
      7 N         139.8689  137.7063  161.4078 N.ar    1  UNL1       -0.2408
      8 C         140.1323  137.8941  162.8724 C.ar    1  UNL1        0.0990
      9 C         140.5439  139.2389  163.3941 C.ar    1  UNL1        0.0222
     10 C         140.6920  140.3959  162.4510 C.ar    1  UNL1        0.0209
     11 C         141.8938  142.3042  167.3667 C.ar    1  UNL1        0.1057
     12 C         140.5102  142.5016  166.8222 C.ar    1  UNL1        0.0183
     13 C         140.2467  142.3138  165.3575 C.ar    1  UNL1        0.0013
     14 C         141.3670  141.9285  164.4373 C.ar    1  UNL1        0.0002
     15 C         142.7507  141.7311  164.9819 C.ar    1  UNL1        0.0013
     16 C         143.0140  141.9190  166.4466 C.ar    1  UNL1        0.0183
     17 C         142.4206  142.6799  170.2961 C.3     1  UNL1        0.1816
     18 S         142.1572  142.4920  168.8315 S.O2    1  UNL1        0.0104
     19 O         143.6220  142.6467  168.5482 O.2     1  UNL1       -0.1686
     20 O         140.6924  142.3374  169.1147 O.2     1  UNL1       -0.1686
     21 N         141.1364  143.8669  159.6218 N.pl3   1  UNL1       -0.2881
     22 C         140.1591  145.0038  159.6701 C.3     1  UNL1        0.1242
     23 C         140.3073  146.1608  158.7270 C.3     1  UNL1        0.1636
     24 O         141.4328  146.1809  157.7356 O.3     1  UNL1       -0.3501
     25 C         142.4101  145.0441  157.6873 C.3     1  UNL1        0.1636
     26 C         142.2620  143.8871  158.6304 C.3     1  UNL1        0.1242
     27 C         139.7536  138.6755  159.0000 C.ar    1  UNL1        0.0945
     28 C         140.4866  137.7396  158.0852 C.ar    1  UNL1        0.0425
     29 C         139.8970  137.8762  156.7128 C.ar    1  UNL1        0.1215
     30 N         138.7995  138.8967  156.7793 N.ar    1  UNL1       -0.1710
     31 N         138.7109  139.3906  158.1929 N.ar    1  UNL1       -0.2742
     32 H         138.0793  140.0656  158.5315 H       1  UNL1        0.1890
@<TRIPOS>BOND
     1    17    18    1
     2    18    19    2
     3    18    20    2
     4    18    11    1
     5    11    12   ar
     6    12    13   ar
     7    13    14   ar
     8    14     1    1
     9     1     2   ar
    10     2     3   ar
    11     3    21    1
    12    21    22    1
    13    22    23    1
    14    23    24    1
    15    24    25    1
    16    25    26    1
    17     3     4   ar
    18     4     5   ar
    19     5     6   ar
    20     6    27    1
    21    27    28   ar
    22    28    29   ar
    23    29    30   ar
    24    30    31   ar
    25     6     7   ar
    26     7     8   ar
    27     8     9   ar
    28     9    10   ar
    29    14    15   ar
    30    15    16   ar
    31    16    11   ar
    32    10     1   ar
    33    26    21    1
    34    10     5   ar
    35    31    27   ar
    36    31    32    1
@<TRIPOS>MOLECULE
*****
 32 36 0 0 0
SMALL
GASTEIGER

@<TRIPOS>ATOM
      1 C         141.3595  139.3234  159.7564 C.ar    1  UNL1        0.0043
      2 C         140.5878  138.9454  160.9858 C.ar    1  UNL1        0.0343
      3 C         140.5592  139.8695  162.1671 C.ar    1  UNL1        0.1318
      4 N         141.3024  141.1716  162.1188 N.ar    1  UNL1       -0.2291
      5 C         142.0741  141.5496  160.8892 C.ar    1  UNL1        0.1017
      6 C         142.8172  142.8517  160.8409 C.ar    1  UNL1        0.1159
      7 N         143.5888  143.2297  159.6114 N.ar    1  UNL1       -0.2408
      8 C         143.6174  142.3056  158.4303 C.ar    1  UNL1        0.0990
      9 C         142.8743  141.0035  158.4786 C.ar    1  UNL1        0.0222
     10 C         142.1026  140.6255  159.7081 C.ar    1  UNL1        0.0209
     11 C         141.4451  136.5510  156.2129 C.ar    1  UNL1        0.1057
     12 C         142.6501  136.6747  157.0977 C.ar    1  UNL1        0.0183
     13 C         142.6215  137.5988  158.2788 C.ar    1  UNL1        0.0013
     14 C         141.3880  138.3993  158.5752 C.ar    1  UNL1        0.0002
     15 C         140.1831  138.2756  157.6904 C.ar    1  UNL1        0.0013
     16 C         140.2117  137.3514  156.5092 C.ar    1  UNL1        0.0183
     17 C         141.5023  134.7027  153.8505 C.3     1  UNL1        0.1816
     18 S         141.4737  135.6268  155.0317 S.O2    1  UNL1        0.0104
     19 O         140.3043  136.3527  154.4355 O.2     1  UNL1       -0.1686
     20 O         142.6432  134.9010  155.6278 O.2     1  UNL1       -0.1686
     21 N         139.7876  139.4916  163.3965 N.pl3   1  UNL1       -0.2881
     22 C         139.7224  138.0569  163.8296 C.3     1  UNL1        0.1242
     23 C         138.9507  137.6790  165.0591 C.3     1  UNL1        0.1636
     24 O         138.2442  138.7356  165.8555 O.3     1  UNL1       -0.3501
     25 C         138.3093  140.1703  165.4224 C.3     1  UNL1        0.1636
     26 C         139.0810  140.5483  164.1930 C.3     1  UNL1        0.1242
     27 C         142.7886  143.7758  162.0221 C.ar    1  UNL1        0.0945
     28 C         143.9845  144.3033  162.7580 C.ar    1  UNL1        0.0425
     29 C         143.4942  145.1881  163.8655 C.ar    1  UNL1        0.1215
     30 N         141.9952  145.2076  163.8141 N.ar    1  UNL1       -0.1710
     31 N         141.5591  144.3347  162.6748 N.ar    1  UNL1       -0.2742
     32 H         140.6292  144.1594  162.4031 H       1  UNL1        0.1890
@<TRIPOS>BOND
     1    17    18    1
     2    18    19    2
     3    18    20    2
     4    18    11    1
     5    11    12   ar
     6    12    13   ar
     7    13    14   ar
     8    14     1    1
     9     1     2   ar
    10     2     3   ar
    11     3    21    1
    12    21    22    1
    13    22    23    1
    14    23    24    1
    15    24    25    1
    16    25    26    1
    17     3     4   ar
    18     4     5   ar
    19     5     6   ar
    20     6    27    1
    21    27    28   ar
    22    28    29   ar
    23    29    30   ar
    24    30    31   ar
    25     6     7   ar
    26     7     8   ar
    27     8     9   ar
    28     9    10   ar
    29    14    15   ar
    30    15    16   ar
    31    16    11   ar
    32    10     1   ar
    33    26    21    1
    34    10     5   ar
    35    31    27   ar
    36    31    32    1
@<TRIPOS>MOLECULE
*****
 32 36 0 0 0
SMALL
GASTEIGER

@<TRIPOS>ATOM
      1 C         141.6077  141.0743  164.2272 C.ar    1  UNL1        0.0043
      2 C         140.3948  140.7696  163.3990 C.ar    1  UNL1        0.0343
      3 C         140.5089  140.6819  161.9058 C.ar    1  UNL1        0.1318
      4 N         141.8358  140.8989  161.2410 N.ar    1  UNL1       -0.2291
      5 C         143.0488  141.2036  162.0693 C.ar    1  UNL1        0.1017
      6 C         144.3758  141.4206  161.4044 C.ar    1  UNL1        0.1159
      7 N         145.5887  141.7253  162.2326 N.ar    1  UNL1       -0.2408
      8 C         145.4746  141.8131  163.7257 C.ar    1  UNL1        0.0990
      9 C         144.1476  141.5961  164.3905 C.ar    1  UNL1        0.0222
     10 C         142.9347  141.2913  163.5623 C.ar    1  UNL1        0.0209
     11 C         141.2655  141.3374  168.7064 C.ar    1  UNL1        0.1057
     12 C         141.7307  140.0647  168.0632 C.ar    1  UNL1        0.0183
     13 C         141.8448  139.9770  166.5702 C.ar    1  UNL1        0.0013
     14 C         141.4936  141.1621  165.7202 C.ar    1  UNL1        0.0002
     15 C         141.0284  142.4348  166.3634 C.ar    1  UNL1        0.0013
     16 C         140.9143  142.5225  167.8565 C.ar    1  UNL1        0.0183
     17 C         141.0374  141.5128  171.6926 C.3     1  UNL1        0.1816
     18 S         141.1514  141.4251  170.1995 S.O2    1  UNL1        0.0104
     19 O         142.3530  140.5388  170.3433 O.2     1  UNL1       -0.1686
     20 O         139.9499  142.3114  170.0557 O.2     1  UNL1       -0.1686
     21 N         139.2960  140.3772  161.0776 N.pl3   1  UNL1       -0.2881
     22 C         139.2067  140.8770  159.6661 C.3     1  UNL1        0.1242
     23 C         137.9937  140.5722  158.8379 C.3     1  UNL1        0.1636
     24 O         136.8701  139.7677  159.4212 O.3     1  UNL1       -0.3501
     25 C         136.9593  139.2680  160.8327 C.3     1  UNL1        0.1636
     26 C         138.1723  139.5727  161.6609 C.3     1  UNL1        0.1242
     27 C         144.4898  141.3329  159.9113 C.ar    1  UNL1        0.0945
     28 C         144.8450  142.4592  158.9865 C.ar    1  UNL1        0.0425
     29 C         144.8434  141.9260  157.5845 C.ar    1  UNL1        0.1215
     30 N         144.4872  140.4700  157.6428 N.ar    1  UNL1       -0.1710
     31 N         144.2687  140.1035  159.0808 N.ar    1  UNL1       -0.2742
     32 H         144.0233  139.2125  159.4201 H       1  UNL1        0.1890
@<TRIPOS>BOND
     1    17    18    1
     2    18    19    2
     3    18    20    2
     4    18    11    1
     5    11    12   ar
     6    12    13   ar
     7    13    14   ar
     8    14     1    1
     9     1     2   ar
    10     2     3   ar
    11     3    21    1
    12    21    22    1
    13    22    23    1
    14    23    24    1
    15    24    25    1
    16    25    26    1
    17     3     4   ar
    18     4     5   ar
    19     5     6   ar
    20     6    27    1
    21    27    28   ar
    22    28    29   ar
    23    29    30   ar
    24    30    31   ar
    25     6     7   ar
    26     7     8   ar
    27     8     9   ar
    28     9    10   ar
    29    14    15   ar
    30    15    16   ar
    31    16    11   ar
    32    10     1   ar
    33    26    21    1
    34    10     5   ar
    35    31    27   ar
    36    31    32    1
@<TRIPOS>MOLECULE
*****
 32 36 0 0 0
SMALL
GASTEIGER

@<TRIPOS>ATOM
      1 C         142.0240  139.1054  159.7897 C.ar    1  UNL1        0.0043
      2 C         141.8870  137.9946  158.7910 C.ar    1  UNL1        0.0343
      3 C         142.6732  138.0329  157.5141 C.ar    1  UNL1        0.1318
      4 N         143.5963  139.1820  157.2358 N.ar    1  UNL1       -0.2291
      5 C         143.7333  140.2928  158.2346 C.ar    1  UNL1        0.1017
      6 C         144.6565  141.4419  157.9564 C.ar    1  UNL1        0.1159
      7 N         144.7935  142.5526  158.9550 N.ar    1  UNL1       -0.2408
      8 C         144.0074  142.5143  160.2319 C.ar    1  UNL1        0.0990
      9 C         143.0842  141.3652  160.5101 C.ar    1  UNL1        0.0222
     10 C         142.9472  140.2545  159.5115 C.ar    1  UNL1        0.0209
     11 C         139.6656  138.9905  163.6204 C.ar    1  UNL1        0.1057
     12 C         139.1887  139.8278  162.4709 C.ar    1  UNL1        0.0183
     13 C         139.9748  139.8662  161.1940 C.ar    1  UNL1        0.0013
     14 C         141.2379  139.0671  161.0666 C.ar    1  UNL1        0.0002
     15 C         141.7148  138.2297  162.2161 C.ar    1  UNL1        0.0013
     16 C         140.9286  138.1914  163.4930 C.ar    1  UNL1        0.0183
     17 C         138.0932  138.9139  166.1742 C.3     1  UNL1        0.1816
     18 S         138.8794  138.9522  164.8973 S.O2    1  UNL1        0.0104
     19 O         139.6052  137.7050  165.3068 O.2     1  UNL1       -0.1686
     20 O         138.1535  140.1993  164.4879 O.2     1  UNL1       -0.1686
     21 N         142.5362  136.9221  156.5154 N.pl3   1  UNL1       -0.2881
     22 C         143.7500  136.1651  156.0643 C.3     1  UNL1        0.1242
     23 C         143.6129  135.0543  155.0656 C.3     1  UNL1        0.1636
     24 O         142.2620  134.7005  154.5180 O.3     1  UNL1       -0.3501
     25 C         141.0482  135.4575  154.9691 C.3     1  UNL1        0.1636
     26 C         141.1852  136.5683  155.9678 C.3     1  UNL1        0.1242
     27 C         145.4426  141.4801  156.6794 C.ar    1  UNL1        0.0945
     28 C         146.7823  142.1272  156.4878 C.ar    1  UNL1        0.0425
     29 C         147.1948  141.9251  155.0599 C.ar    1  UNL1        0.1215
     30 N         146.1100  141.1530  154.3690 N.ar    1  UNL1       -0.1710
     31 N         145.0272  140.8780  155.3699 N.ar    1  UNL1       -0.2742
     32 H         144.1907  140.3883  155.1976 H       1  UNL1        0.1890
@<TRIPOS>BOND
     1    17    18    1
     2    18    19    2
     3    18    20    2
     4    18    11    1
     5    11    12   ar
     6    12    13   ar
     7    13    14   ar
     8    14     1    1
     9     1     2   ar
    10     2     3   ar
    11     3    21    1
    12    21    22    1
    13    22    23    1
    14    23    24    1
    15    24    25    1
    16    25    26    1
    17     3     4   ar
    18     4     5   ar
    19     5     6   ar
    20     6    27    1
    21    27    28   ar
    22    28    29   ar
    23    29    30   ar
    24    30    31   ar
    25     6     7   ar
    26     7     8   ar
    27     8     9   ar
    28     9    10   ar
    29    14    15   ar
    30    15    16   ar
    31    16    11   ar
    32    10     1   ar
    33    26    21    1
    34    10     5   ar
    35    31    27   ar
    36    31    32    1
