@<TRIPOS>MOLECULE
*****
 29 32 0 0 0
SMALL
GASTEIGER

@<TRIPOS>ATOM
      1 C         140.6622  141.4286  164.4753 C.2     1  UNL1        0.0020
      2 C         140.6474  141.8515  165.9144 C.2     1  UNL1        0.0130
      3 C         140.8073  140.8275  166.9987 C.3     1  UNL1        0.1542
      4 C         140.6327  142.2744  167.3534 C.3     1  UNL1        0.0617
      5 C         140.6179  142.6972  168.7925 C.3     1  UNL1        0.0761
      6 N         140.7777  141.6732  169.8768 N.3     1  UNL1       -0.2712
      7 C         140.7629  142.0961  171.3159 C.3     1  UNL1        0.0896
      8 C         140.9523  140.2263  169.5221 C.3     1  UNL1        0.0761
      9 C         140.9671  139.8034  168.0830 C.3     1  UNL1        0.0617
     10 O         140.9819  139.3805  166.6439 O.3     1  UNL1       -0.4785
     11 C         140.9966  138.9576  165.2049 C.ar    1  UNL1        0.1386
     12 C         141.1712  137.5106  164.8501 C.ar    1  UNL1        0.0369
     13 C         141.1860  137.0877  163.4110 C.ar    1  UNL1        0.0031
     14 C         141.0262  138.1118  162.3267 C.ar    1  UNL1        0.0002
     15 C         140.8516  139.5587  162.6814 C.ar    1  UNL1        0.0030
     16 C         140.8368  139.9817  164.1205 C.ar    1  UNL1        0.0338
     17 C         140.1828  144.5007  161.2223 C.ar    1  UNL1        0.0536
     18 C         141.4950  144.3623  161.9356 C.ar    1  UNL1        0.0045
     19 C         141.6548  143.3382  163.0200 C.ar    1  UNL1        0.0001
     20 C         140.5024  142.4526  163.3909 C.ar    1  UNL1       -0.0001
     21 C         139.1901  142.5911  162.6776 C.ar    1  UNL1        0.0001
     22 C         139.0303  143.6151  161.5932 C.ar    1  UNL1        0.0045
     23 N         140.4515  145.2061  158.7363 N.am    1  UNL1       -0.2761
     24 C         140.0230  145.5248  160.1380 C.2     1  UNL1        0.2490
     25 O         139.4345  146.8676  160.4554 O.2     1  UNL1       -0.2699
     26 C         140.0213  145.7940  156.2424 C.3     1  UNL1        0.0233
     27 C         140.2917  146.2302  157.6520 C.3     1  UNL1        0.0938
     28 C         141.0399  143.8633  158.4189 C.3     1  UNL1        0.0938
     29 C         142.5283  143.6975  158.3351 C.3     1  UNL1        0.0233
@<TRIPOS>BOND
     1    26    27    1
     2    27    23    1
     3    23    28    1
     4    28    29    1
     5    23    24   am
     6    24    25    2
     7    24    17    1
     8    17    18   ar
     9    18    19   ar
    10    19    20   ar
    11    20     1    1
    12     1     2    2
    13     2     3    1
    14     3     4    1
    15     4     5    1
    16     5     6    1
    17     6     7    1
    18     6     8    1
    19     8     9    1
    20     3    10    1
    21    10    11    1
    22    11    12   ar
    23    12    13   ar
    24    13    14   ar
    25    14    15   ar
    26    15    16   ar
    27    20    21   ar
    28    21    22   ar
    29    22    17   ar
    30    16     1    1
    31     9     3    1
    32    16    11   ar
@<TRIPOS>MOLECULE
*****
 29 32 0 0 0
SMALL
GASTEIGER

@<TRIPOS>ATOM
      1 C         142.1193  142.5356  162.1797 C.2     1  UNL1        0.0020
      2 C         142.9159  141.9653  161.0438 C.2     1  UNL1        0.0130
      3 C         142.8888  142.6313  159.7000 C.3     1  UNL1        0.1542
      4 C         143.7125  141.3951  159.9079 C.3     1  UNL1        0.0617
      5 C         144.5090  140.8248  158.7721 C.3     1  UNL1        0.0761
      6 N         144.4819  141.4908  157.4283 N.3     1  UNL1       -0.2712
      7 C         145.2785  140.9205  156.2924 C.3     1  UNL1        0.0896
      8 C         143.6582  142.7270  157.2204 C.3     1  UNL1        0.0761
      9 C         142.8616  143.2972  158.3563 C.3     1  UNL1        0.0617
     10 O         142.0650  143.8675  159.4922 O.3     1  UNL1       -0.4785
     11 C         141.2684  144.4378  160.6280 C.ar    1  UNL1        0.1386
     12 C         140.4446  145.6740  160.4202 C.ar    1  UNL1        0.0369
     13 C         139.6481  146.2443  161.5561 C.ar    1  UNL1        0.0031
     14 C         139.6752  145.5783  162.8998 C.ar    1  UNL1        0.0002
     15 C         140.4989  144.3421  163.1078 C.ar    1  UNL1        0.0030
     16 C         141.2956  143.7718  161.9718 C.ar    1  UNL1        0.0338
     17 C         142.2007  140.5377  166.2111 C.ar    1  UNL1        0.0536
     18 C         143.0918  141.7131  165.9384 C.ar    1  UNL1        0.0045
     19 C         143.0646  142.3791  164.5946 C.ar    1  UNL1        0.0001
     20 C         142.1464  141.8697  163.5235 C.ar    1  UNL1       -0.0001
     21 C         141.2553  140.6942  163.7962 C.ar    1  UNL1        0.0001
     22 C         141.2825  140.0282  165.1400 C.ar    1  UNL1        0.0045
     23 N         141.2676  140.3011  168.6242 N.am    1  UNL1       -0.2761
     24 C         142.2279  139.8718  167.5549 C.2     1  UNL1        0.2490
     25 O         143.2154  138.7765  167.8293 O.2     1  UNL1       -0.2699
     26 C         140.2455  139.9627  170.9887 C.3     1  UNL1        0.0233
     27 C         141.2948  139.6351  169.9680 C.3     1  UNL1        0.0938
     28 C         140.2801  141.3964  168.3498 C.3     1  UNL1        0.0938
     29 C         140.6290  142.8190  168.6728 C.3     1  UNL1        0.0233
@<TRIPOS>BOND
     1    26    27    1
     2    27    23    1
     3    23    28    1
     4    28    29    1
     5    23    24   am
     6    24    25    2
     7    24    17    1
     8    17    18   ar
     9    18    19   ar
    10    19    20   ar
    11    20     1    1
    12     1     2    2
    13     2     3    1
    14     3     4    1
    15     4     5    1
    16     5     6    1
    17     6     7    1
    18     6     8    1
    19     8     9    1
    20     3    10    1
    21    10    11    1
    22    11    12   ar
    23    12    13   ar
    24    13    14   ar
    25    14    15   ar
    26    15    16   ar
    27    20    21   ar
    28    21    22   ar
    29    22    17   ar
    30    16     1    1
    31     9     3    1
    32    16    11   ar
@<TRIPOS>MOLECULE
*****
 29 32 0 0 0
SMALL
GASTEIGER

@<TRIPOS>ATOM
      1 C         141.0208  141.2751  163.6416 C.2     1  UNL1        0.0020
      2 C         141.7232  141.7056  164.8952 C.2     1  UNL1        0.0130
      3 C         141.6836  140.8329  166.1145 C.3     1  UNL1        0.1542
      4 C         142.4255  142.1361  166.1488 C.3     1  UNL1        0.0617
      5 C         143.1278  142.5665  167.4023 C.3     1  UNL1        0.0761
      6 N         143.0882  141.6938  168.6216 N.3     1  UNL1       -0.2712
      7 C         143.7906  142.1243  169.8752 C.3     1  UNL1        0.0896
      8 C         142.3464  140.3906  168.5874 C.3     1  UNL1        0.0761
      9 C         141.6441  139.9601  167.3338 C.3     1  UNL1        0.0617
     10 O         140.9417  139.5296  166.0803 O.3     1  UNL1       -0.4785
     11 C         140.2394  139.0991  164.8267 C.ar    1  UNL1        0.1386
     12 C         139.4975  137.7958  164.7924 C.ar    1  UNL1        0.0369
     13 C         138.7952  137.3654  163.5389 C.ar    1  UNL1        0.0031
     14 C         138.8348  138.2381  162.3196 C.ar    1  UNL1        0.0002
     15 C         139.5766  139.5413  162.3538 C.ar    1  UNL1        0.0030
     16 C         140.2790  139.9719  163.6074 C.ar    1  UNL1        0.0338
     17 C         141.1394  143.8934  159.9837 C.ar    1  UNL1        0.0536
     18 C         140.1210  144.1475  161.0552 C.ar    1  UNL1        0.0045
     19 C         140.0815  143.2748  162.2745 C.ar    1  UNL1        0.0001
     20 C         141.0603  142.1479  162.4223 C.ar    1  UNL1       -0.0001
     21 C         142.0788  141.8937  161.3508 C.ar    1  UNL1        0.0001
     22 C         142.1184  142.7664  160.1314 C.ar    1  UNL1        0.0045
     23 N         140.2349  144.5095  157.6274 N.am    1  UNL1       -0.2761
     24 C         141.1790  144.7662  158.7644 C.2     1  UNL1        0.2490
     25 O         142.1627  145.8956  158.6821 O.2     1  UNL1       -0.2699
     26 C         139.5978  146.7209  156.4217 C.3     1  UNL1        0.0233
     27 C         140.2744  145.3822  156.4081 C.3     1  UNL1        0.0938
     28 C         139.2512  143.3800  157.7097 C.3     1  UNL1        0.0938
     29 C         139.6163  142.0270  157.1748 C.3     1  UNL1        0.0233
@<TRIPOS>BOND
     1    26    27    1
     2    27    23    1
     3    23    28    1
     4    28    29    1
     5    23    24   am
     6    24    25    2
     7    24    17    1
     8    17    18   ar
     9    18    19   ar
    10    19    20   ar
    11    20     1    1
    12     1     2    2
    13     2     3    1
    14     3     4    1
    15     4     5    1
    16     5     6    1
    17     6     7    1
    18     6     8    1
    19     8     9    1
    20     3    10    1
    21    10    11    1
    22    11    12   ar
    23    12    13   ar
    24    13    14   ar
    25    14    15   ar
    26    15    16   ar
    27    20    21   ar
    28    21    22   ar
    29    22    17   ar
    30    16     1    1
    31     9     3    1
    32    16    11   ar
@<TRIPOS>MOLECULE
*****
 29 32 0 0 0
SMALL
GASTEIGER

@<TRIPOS>ATOM
      1 C         141.6345  141.9307  162.3427 C.2     1  UNL1        0.0020
      2 C         141.2087  143.0296  161.4146 C.2     1  UNL1        0.0130
      3 C         141.4812  142.9169  159.9439 C.3     1  UNL1        0.1542
      4 C         140.7830  144.1284  160.4866 C.3     1  UNL1        0.0617
      5 C         140.3572  145.2273  159.5586 C.3     1  UNL1        0.0761
      6 N         140.6297  145.1145  158.0879 N.3     1  UNL1       -0.2712
      7 C         140.2039  146.2134  157.1598 C.3     1  UNL1        0.0896
      8 C         141.3279  143.9030  157.5452 C.3     1  UNL1        0.0761
      9 C         141.7536  142.8041  158.4732 C.3     1  UNL1        0.0617
     10 O         142.1794  141.7052  159.4012 O.3     1  UNL1       -0.4785
     11 C         142.6052  140.6064  160.3292 C.ar    1  UNL1        0.1386
     12 C         143.3034  139.3948  159.7865 C.ar    1  UNL1        0.0369
     13 C         143.7292  138.2959  160.7146 C.ar    1  UNL1        0.0031
     14 C         143.4567  138.4087  162.1853 C.ar    1  UNL1        0.0002
     15 C         142.7585  139.6202  162.7280 C.ar    1  UNL1        0.0030
     16 C         142.3327  140.7191  161.8000 C.ar    1  UNL1        0.0338
     17 C         140.8171  142.2689  166.7549 C.ar    1  UNL1        0.0536
     18 C         142.1894  142.5570  166.2221 C.ar    1  UNL1        0.0045
     19 C         142.4618  142.4442  164.7514 C.ar    1  UNL1        0.0001
     20 C         141.3620  142.0434  163.8134 C.ar    1  UNL1       -0.0001
     21 C         139.9897  141.7554  164.3462 C.ar    1  UNL1        0.0001
     22 C         139.7172  141.8681  165.8169 C.ar    1  UNL1        0.0045
     23 N         140.7006  141.1813  169.1114 N.am    1  UNL1       -0.2761
     24 C         140.5447  142.3816  168.2256 C.2     1  UNL1        0.2490
     25 O         140.1163  143.6949  168.8105 O.2     1  UNL1       -0.2699
     26 C         141.5244  141.7082  171.5184 C.3     1  UNL1        0.0233
     27 C         140.4281  141.2940  170.5822 C.3     1  UNL1        0.0938
     28 C         141.1289  139.8680  168.5265 C.3     1  UNL1        0.0938
     29 C         142.5845  139.5098  168.4736 C.3     1  UNL1        0.0233
@<TRIPOS>BOND
     1    26    27    1
     2    27    23    1
     3    23    28    1
     4    28    29    1
     5    23    24   am
     6    24    25    2
     7    24    17    1
     8    17    18   ar
     9    18    19   ar
    10    19    20   ar
    11    20     1    1
    12     1     2    2
    13     2     3    1
    14     3     4    1
    15     4     5    1
    16     5     6    1
    17     6     7    1
    18     6     8    1
    19     8     9    1
    20     3    10    1
    21    10    11    1
    22    11    12   ar
    23    12    13   ar
    24    13    14   ar
    25    14    15   ar
    26    15    16   ar
    27    20    21   ar
    28    21    22   ar
    29    22    17   ar
    30    16     1    1
    31     9     3    1
    32    16    11   ar
@<TRIPOS>MOLECULE
*****
 29 32 0 0 0
SMALL
GASTEIGER

@<TRIPOS>ATOM
      1 C         140.3039  141.8449  162.4321 C.2     1  UNL1        0.0020
      2 C         140.6104  142.9465  161.4612 C.2     1  UNL1        0.0130
      3 C         139.9982  142.9312  160.0919 C.3     1  UNL1        0.1542
      4 C         140.9169  144.0480  160.4903 C.3     1  UNL1        0.0617
      5 C         141.2234  145.1494  159.5193 C.3     1  UNL1        0.0761
      6 N         140.6112  145.1341  158.1501 N.3     1  UNL1       -0.2712
      7 C         140.9177  146.2357  157.1791 C.3     1  UNL1        0.0896
      8 C         139.6925  144.0174  157.7517 C.3     1  UNL1        0.0761
      9 C         139.3860  142.9159  158.7226 C.3     1  UNL1        0.0617
     10 O         139.0795  141.8143  159.6936 O.3     1  UNL1       -0.4785
     11 C         138.7730  140.7128  160.6645 C.ar    1  UNL1        0.1386
     12 C         137.8542  139.5960  160.2661 C.ar    1  UNL1        0.0369
     13 C         137.5478  138.4945  161.2371 C.ar    1  UNL1        0.0031
     14 C         138.1600  138.5098  162.6064 C.ar    1  UNL1        0.0002
     15 C         139.0787  139.6265  163.0047 C.ar    1  UNL1        0.0030
     16 C         139.3852  140.7281  162.0338 C.ar    1  UNL1        0.0338
     17 C         142.1406  141.8908  166.5400 C.ar    1  UNL1        0.0536
     18 C         140.8889  142.6717  166.2693 C.ar    1  UNL1        0.0045
     19 C         140.2767  142.6564  164.9000 C.ar    1  UNL1        0.0001
     20 C         140.9161  141.8602  163.8014 C.ar    1  UNL1       -0.0001
     21 C         142.1679  141.0792  164.0721 C.ar    1  UNL1        0.0001
     22 C         142.7801  141.0944  165.4414 C.ar    1  UNL1        0.0045
     23 N         142.2498  140.9681  168.9663 N.am    1  UNL1       -0.2761
     24 C         142.7528  141.9061  167.9093 C.2     1  UNL1        0.2490
     25 O         143.8680  142.8594  168.2216 O.2     1  UNL1       -0.2699
     26 C         143.2705  139.6964  170.9889 C.3     1  UNL1        0.0233
     27 C         142.8620  140.9834  170.3356 C.3     1  UNL1        0.0938
     28 C         141.1345  140.0148  168.6539 C.3     1  UNL1        0.0938
     29 C         139.7213  140.3721  169.0076 C.3     1  UNL1        0.0233
@<TRIPOS>BOND
     1    26    27    1
     2    27    23    1
     3    23    28    1
     4    28    29    1
     5    23    24   am
     6    24    25    2
     7    24    17    1
     8    17    18   ar
     9    18    19   ar
    10    19    20   ar
    11    20     1    1
    12     1     2    2
    13     2     3    1
    14     3     4    1
    15     4     5    1
    16     5     6    1
    17     6     7    1
    18     6     8    1
    19     8     9    1
    20     3    10    1
    21    10    11    1
    22    11    12   ar
    23    12    13   ar
    24    13    14   ar
    25    14    15   ar
    26    15    16   ar
    27    20    21   ar
    28    21    22   ar
    29    22    17   ar
    30    16     1    1
    31     9     3    1
    32    16    11   ar
@<TRIPOS>MOLECULE
*****
 29 32 0 0 0
SMALL
GASTEIGER

@<TRIPOS>ATOM
      1 C         142.0290  140.3915  163.5247 C.2     1  UNL1        0.0020
      2 C         140.8617  139.6911  164.1547 C.2     1  UNL1        0.0130
      3 C         140.5015  139.9705  165.5838 C.3     1  UNL1        0.1542
      4 C         139.6944  138.9908  164.7847 C.3     1  UNL1        0.0617
      5 C         138.5271  138.2905  165.4147 C.3     1  UNL1        0.0761
      6 N         138.1669  138.5699  166.8437 N.3     1  UNL1       -0.2712
      7 C         136.9995  137.8695  167.4737 C.3     1  UNL1        0.0896
      8 C         138.9741  139.5496  167.6428 C.3     1  UNL1        0.0761
      9 C         140.1414  140.2500  167.0128 C.3     1  UNL1        0.0617
     10 O         141.3087  140.9503  166.3828 O.3     1  UNL1       -0.4785
     11 C         142.4760  141.6506  165.7528 C.ar    1  UNL1        0.1386
     12 C         143.2833  142.6305  166.5519 C.ar    1  UNL1        0.0369
     13 C         144.4505  143.3308  165.9219 C.ar    1  UNL1        0.0031
     14 C         144.8107  143.0513  164.4929 C.ar    1  UNL1        0.0002
     15 C         144.0035  142.0716  163.6938 C.ar    1  UNL1        0.0030
     16 C         142.8362  141.3712  164.3238 C.ar    1  UNL1        0.0338
     17 C         143.1095  139.5532  159.2375 C.ar    1  UNL1        0.0536
     18 C         142.1651  140.6706  159.5683 C.ar    1  UNL1        0.0045
     19 C         141.8049  140.9500  160.9973 C.ar    1  UNL1        0.0001
     20 C         142.3892  140.1120  162.0956 C.ar    1  UNL1       -0.0001
     21 C         143.3336  138.9945  161.7649 C.ar    1  UNL1        0.0001
     22 C         143.6938  138.7151  160.3359 C.ar    1  UNL1        0.0045
     23 N         142.6434  138.3179  156.9999 N.am    1  UNL1       -0.2761
     24 C         143.4696  139.2737  157.8085 C.2     1  UNL1        0.2490
     25 O         144.6560  139.9502  157.1880 O.2     1  UNL1       -0.2699
     26 C         144.1418  137.1152  155.2510 C.3     1  UNL1        0.0233
     27 C         143.0036  138.0385  155.5709 C.3     1  UNL1        0.0938
     28 C         141.4571  137.6414  157.6205 C.3     1  UNL1        0.0938
     29 C         140.1537  137.5850  156.8801 C.3     1  UNL1        0.0233
@<TRIPOS>BOND
     1    26    27    1
     2    27    23    1
     3    23    28    1
     4    28    29    1
     5    23    24   am
     6    24    25    2
     7    24    17    1
     8    17    18   ar
     9    18    19   ar
    10    19    20   ar
    11    20     1    1
    12     1     2    2
    13     2     3    1
    14     3     4    1
    15     4     5    1
    16     5     6    1
    17     6     7    1
    18     6     8    1
    19     8     9    1
    20     3    10    1
    21    10    11    1
    22    11    12   ar
    23    12    13   ar
    24    13    14   ar
    25    14    15   ar
    26    15    16   ar
    27    20    21   ar
    28    21    22   ar
    29    22    17   ar
    30    16     1    1
    31     9     3    1
    32    16    11   ar
@<TRIPOS>MOLECULE
*****
 29 32 0 0 0
SMALL
GASTEIGER

@<TRIPOS>ATOM
      1 C         141.8012  140.5554  162.4593 C.2     1  UNL1        0.0020
      2 C         142.7642  141.0774  161.4345 C.2     1  UNL1        0.0130
      3 C         142.5348  140.7978  159.9788 C.3     1  UNL1        0.1542
      4 C         143.7271  141.5993  160.4097 C.3     1  UNL1        0.0617
      5 C         144.6900  142.1213  159.3848 C.3     1  UNL1        0.0761
      6 N         144.4606  141.8416  157.9291 N.3     1  UNL1       -0.2712
      7 C         145.4236  142.3636  156.9042 C.3     1  UNL1        0.0896
      8 C         143.2683  141.0400  157.4982 C.3     1  UNL1        0.0761
      9 C         142.3054  140.5181  158.5230 C.3     1  UNL1        0.0617
     10 O         141.3424  139.9961  159.5479 O.3     1  UNL1       -0.4785
     11 C         140.3794  139.4742  160.5727 C.ar    1  UNL1        0.1386
     12 C         139.1870  138.6725  160.1418 C.ar    1  UNL1        0.0369
     13 C         138.2241  138.1506  161.1666 C.ar    1  UNL1        0.0031
     14 C         138.4535  138.4303  162.6224 C.ar    1  UNL1        0.0002
     15 C         139.6459  139.2319  163.0533 C.ar    1  UNL1        0.0030
     16 C         140.6089  139.7538  162.0284 C.ar    1  UNL1        0.0338
     17 C         142.4895  141.3944  166.8265 C.ar    1  UNL1        0.0536
     18 C         141.6606  142.3355  166.0036 C.ar    1  UNL1        0.0045
     19 C         141.4312  142.0558  164.5478 C.ar    1  UNL1        0.0001
     20 C         142.0306  140.8351  163.9151 C.ar    1  UNL1       -0.0001
     21 C         142.8595  139.8939  164.7380 C.ar    1  UNL1        0.0001
     22 C         143.0890  140.1736  166.1938 C.ar    1  UNL1        0.0045
     23 N         141.9416  140.9225  169.3219 N.am    1  UNL1       -0.2761
     24 C         142.7189  141.6741  168.2823 C.2     1  UNL1        0.2490
     25 O         143.7256  142.7053  168.6983 O.2     1  UNL1       -0.2699
     26 C         141.1510  141.9719  171.5634 C.3     1  UNL1        0.0233
     27 C         142.1710  141.2022  170.7777 C.3     1  UNL1        0.0938
     28 C         140.9348  139.8913  168.9059 C.3     1  UNL1        0.0938
     29 C         139.5098  140.2903  168.6609 C.3     1  UNL1        0.0233
@<TRIPOS>BOND
     1    26    27    1
     2    27    23    1
     3    23    28    1
     4    28    29    1
     5    23    24   am
     6    24    25    2
     7    24    17    1
     8    17    18   ar
     9    18    19   ar
    10    19    20   ar
    11    20     1    1
    12     1     2    2
    13     2     3    1
    14     3     4    1
    15     4     5    1
    16     5     6    1
    17     6     7    1
    18     6     8    1
    19     8     9    1
    20     3    10    1
    21    10    11    1
    22    11    12   ar
    23    12    13   ar
    24    13    14   ar
    25    14    15   ar
    26    15    16   ar
    27    20    21   ar
    28    21    22   ar
    29    22    17   ar
    30    16     1    1
    31     9     3    1
    32    16    11   ar
@<TRIPOS>MOLECULE
*****
 29 32 0 0 0
SMALL
GASTEIGER

@<TRIPOS>ATOM
      1 C         140.7936  141.0525  164.0404 C.2     1  UNL1        0.0020
      2 C         141.4019  140.6745  165.3584 C.2     1  UNL1        0.0130
      3 C         141.0229  141.4232  166.6017 C.3     1  UNL1        0.1542
      4 C         142.0102  140.2964  166.6764 C.3     1  UNL1        0.0617
      5 C         142.6184  139.9184  167.9943 C.3     1  UNL1        0.0761
      6 N         142.2394  140.6671  169.2376 N.3     1  UNL1       -0.2712
      7 C         142.8478  140.2891  170.5556 C.3     1  UNL1        0.0896
      8 C         141.2522  141.7939  169.1629 C.3     1  UNL1        0.0761
      9 C         140.6439  142.1719  167.8450 C.3     1  UNL1        0.0617
     10 O         140.0356  142.5500  166.5270 O.3     1  UNL1       -0.4785
     11 C         139.4273  142.9281  165.2090 C.ar    1  UNL1        0.1386
     12 C         138.4400  144.0549  165.1343 C.ar    1  UNL1        0.0369
     13 C         137.8317  144.4329  163.8163 C.ar    1  UNL1        0.0031
     14 C         138.2107  143.6842  162.5731 C.ar    1  UNL1        0.0002
     15 C         139.1980  142.5574  162.6477 C.ar    1  UNL1        0.0030
     16 C         139.8063  142.1793  163.9657 C.ar    1  UNL1        0.0338
     17 C         141.9306  138.8063  160.3106 C.ar    1  UNL1        0.0536
     18 C         140.7620  138.3510  161.1334 C.ar    1  UNL1        0.0045
     19 C         140.3830  139.0998  162.3767 C.ar    1  UNL1        0.0001
     20 C         141.1726  140.3038  162.7971 C.ar    1  UNL1       -0.0001
     21 C         142.3412  140.7591  161.9743 C.ar    1  UNL1        0.0001
     22 C         142.7202  140.0104  160.7310 C.ar    1  UNL1        0.0045
     23 N         141.7605  138.4841  157.7382 N.am    1  UNL1       -0.2761
     24 C         142.3096  138.0575  159.0673 C.2     1  UNL1        0.2490
     25 O         143.2377  136.8822  159.1532 O.2     1  UNL1       -0.2699
     26 C         141.3846  136.4994  156.1043 C.3     1  UNL1        0.0233
     27 C         142.1395  137.7353  156.4949 C.3     1  UNL1        0.0938
     28 C         140.8324  139.6594  157.6523 C.3     1  UNL1        0.0938
     29 C         139.3542  139.4611  157.8124 C.3     1  UNL1        0.0233
@<TRIPOS>BOND
     1    26    27    1
     2    27    23    1
     3    23    28    1
     4    28    29    1
     5    23    24   am
     6    24    25    2
     7    24    17    1
     8    17    18   ar
     9    18    19   ar
    10    19    20   ar
    11    20     1    1
    12     1     2    2
    13     2     3    1
    14     3     4    1
    15     4     5    1
    16     5     6    1
    17     6     7    1
    18     6     8    1
    19     8     9    1
    20     3    10    1
    21    10    11    1
    22    11    12   ar
    23    12    13   ar
    24    13    14   ar
    25    14    15   ar
    26    15    16   ar
    27    20    21   ar
    28    21    22   ar
    29    22    17   ar
    30    16     1    1
    31     9     3    1
    32    16    11   ar
@<TRIPOS>MOLECULE
*****
 29 32 0 0 0
SMALL
GASTEIGER

@<TRIPOS>ATOM
      1 C         140.8442  139.8635  160.7768 C.2     1  UNL1        0.0020
      2 C         140.5936  141.3406  160.7022 C.2     1  UNL1        0.0130
      3 C         140.3407  142.1227  161.9569 C.3     1  UNL1        0.1542
      4 C         140.3429  142.8176  160.6276 C.3     1  UNL1        0.0617
      5 C         140.0922  144.2946  160.5531 C.3     1  UNL1        0.0761
      6 N         139.8394  145.0767  161.8078 N.3     1  UNL1       -0.2712
      7 C         139.5887  146.5538  161.7333 C.3     1  UNL1        0.0896
      8 C         139.8372  144.3818  163.1371 C.3     1  UNL1        0.0761
      9 C         140.0878  142.9048  163.2117 C.3     1  UNL1        0.0617
     10 O         140.3385  141.4277  163.2863 O.3     1  UNL1       -0.4785
     11 C         140.5892  139.9507  163.3608 C.ar    1  UNL1        0.1386
     12 C         140.5870  139.2557  164.6901 C.ar    1  UNL1        0.0369
     13 C         140.8376  137.7787  164.7647 C.ar    1  UNL1        0.0031
     14 C         141.0905  136.9966  163.5099 C.ar    1  UNL1        0.0002
     15 C         141.0927  137.6915  162.1806 C.ar    1  UNL1        0.0030
     16 C         140.8420  139.1686  162.1060 C.ar    1  UNL1        0.0338
     17 C         141.6028  137.5173  157.0125 C.ar    1  UNL1        0.0536
     18 C         140.2010  137.6952  157.5157 C.ar    1  UNL1        0.0045
     19 C         139.9481  138.4773  158.7705 C.ar    1  UNL1        0.0001
     20 C         141.0971  139.0814  159.5220 C.ar    1  UNL1       -0.0001
     21 C         142.4990  138.9035  159.0188 C.ar    1  UNL1        0.0001
     22 C         142.7518  138.1214  157.7641 C.ar    1  UNL1        0.0045
     23 N         142.5985  135.4337  155.8221 N.am    1  UNL1       -0.2761
     24 C         141.8556  136.7352  155.7578 C.2     1  UNL1        0.2490
     25 O         141.3656  137.2547  154.4386 O.2     1  UNL1       -0.2699
     26 C         141.8025  133.7165  154.0422 C.3     1  UNL1        0.0233
     27 C         142.8513  134.6516  154.5673 C.3     1  UNL1        0.0938
     28 C         143.0885  134.9142  157.1412 C.3     1  UNL1        0.0938
     29 C         143.9197  133.6667  157.1940 C.3     1  UNL1        0.0233
@<TRIPOS>BOND
     1    26    27    1
     2    27    23    1
     3    23    28    1
     4    28    29    1
     5    23    24   am
     6    24    25    2
     7    24    17    1
     8    17    18   ar
     9    18    19   ar
    10    19    20   ar
    11    20     1    1
    12     1     2    2
    13     2     3    1
    14     3     4    1
    15     4     5    1
    16     5     6    1
    17     6     7    1
    18     6     8    1
    19     8     9    1
    20     3    10    1
    21    10    11    1
    22    11    12   ar
    23    12    13   ar
    24    13    14   ar
    25    14    15   ar
    26    15    16   ar
    27    20    21   ar
    28    21    22   ar
    29    22    17   ar
    30    16     1    1
    31     9     3    1
    32    16    11   ar
