@<TRIPOS>MOLECULE
*****
 22 24 0 0 0
SMALL
GASTEIGER

@<TRIPOS>ATOM
      1 N         143.4354  143.9568  171.1830 N.pl3   1  UNL1       -0.3375
      2 C         142.4861  143.0224  170.4932 C.ar    1  UNL1        0.1567
      3 N         141.2090  142.4823  171.0653 N.ar    1  UNL1       -0.2245
      4 C         140.5807  141.5902  170.0360 C.ar    1  UNL1        0.0894
      5 C         139.3142  140.7866  170.0428 C.ar    1  UNL1        0.0228
      6 C         138.9365  139.9719  168.8413 C.ar    1  UNL1        0.0385
      7 C         139.8253  139.9607  167.6331 C.ar    1  UNL1        0.1397
      8 C         141.0919  140.7642  167.6263 C.ar    1  UNL1        0.0450
      9 C         141.4696  141.5790  168.8277 C.ar    1  UNL1        0.0527
     10 S         142.6471  142.4642  169.1104 S.2     1  UNL1       -0.0519
     11 H         143.2417  144.2698  172.0961 H       1  UNL1        0.1442
     12 H         144.2522  144.2571  170.7225 H       1  UNL1        0.1442
     13 O         139.4475  139.1459  166.4316 O.3     1  UNL1       -0.4706
     14 C         138.1662  139.4300  165.7054 C.3     1  UNL1        0.2320
     15 C         138.1816  140.2520  164.4507 C.ar    1  UNL1        0.0221
     16 C         138.4395  139.5953  163.1270 C.ar    1  UNL1        0.0002
     17 C         138.4549  140.4173  161.8724 C.ar    1  UNL1        0.0120
     18 C         138.2125  141.8959  161.9415 C.ar    1  UNL1        0.0682
     19 CL        138.2279  142.7179  160.6868 Cl      1  UNL1       -0.0814
     20 C         137.9546  142.5526  163.2652 C.ar    1  UNL1        0.0680
     21 CL        137.7121  144.0313  163.3343 Cl      1  UNL1       -0.0814
     22 C         137.9392  141.7307  164.5198 C.ar    1  UNL1        0.0116
@<TRIPOS>BOND
     1     1     2    1
     2     2     3   ar
     3     3     4   ar
     4     4     5   ar
     5     5     6   ar
     6     6     7   ar
     7     7    13    1
     8    13    14    1
     9    14    15    1
    10    15    16   ar
    11    16    17   ar
    12    17    18   ar
    13    18    19    1
    14    18    20   ar
    15    20    21    1
    16    20    22   ar
    17     7     8   ar
    18     8     9   ar
    19     9    10   ar
    20    10     2   ar
    21     9     4   ar
    22    22    15   ar
    23     1    11    1
    24     1    12    1
@<TRIPOS>MOLECULE
*****
 22 24 0 0 0
SMALL
GASTEIGER

@<TRIPOS>ATOM
      1 N         140.3407  146.4068  162.4499 N.pl3   1  UNL1       -0.3375
      2 C         139.7661  145.0671  162.8034 C.ar    1  UNL1        0.1567
      3 N         138.8981  144.2195  161.9213 N.ar    1  UNL1       -0.2245
      4 C         138.5542  142.9683  162.6738 C.ar    1  UNL1        0.0894
      5 C         137.7288  141.7709  162.3063 C.ar    1  UNL1        0.0228
      6 C         137.5590  140.6478  163.2860 C.ar    1  UNL1        0.0385
      7 C         138.2146  140.7221  164.6331 C.ar    1  UNL1        0.1397
      8 C         139.0399  141.9195  165.0006 C.ar    1  UNL1        0.0450
      9 C         139.2097  143.0426  164.0209 C.ar    1  UNL1        0.0527
     10 S         139.9587  144.3397  164.1010 S.2     1  UNL1       -0.0519
     11 H         140.1567  146.8043  161.5682 H       1  UNL1        0.1442
     12 H         140.9019  146.8887  163.0996 H       1  UNL1        0.1442
     13 O         138.0447  139.5989  165.6128 O.3     1  UNL1       -0.4706
     14 C         138.7234  138.2834  165.3707 C.3     1  UNL1        0.2320
     15 C         139.9687  138.2242  164.5364 C.ar    1  UNL1        0.0221
     16 C         139.8921  137.7828  163.1049 C.ar    1  UNL1        0.0002
     17 C         141.1373  137.7237  162.2707 C.ar    1  UNL1        0.0120
     18 C         142.4591  138.1059  162.8680 C.ar    1  UNL1        0.0682
     19 CL        143.7043  138.0468  162.0337 Cl      1  UNL1       -0.0814
     20 C         142.5356  138.5474  164.2995 C.ar    1  UNL1        0.0680
     21 CL        143.8574  138.9296  164.8968 Cl      1  UNL1       -0.0814
     22 C         141.2904  138.6065  165.1337 C.ar    1  UNL1        0.0116
@<TRIPOS>BOND
     1     1     2    1
     2     2     3   ar
     3     3     4   ar
     4     4     5   ar
     5     5     6   ar
     6     6     7   ar
     7     7    13    1
     8    13    14    1
     9    14    15    1
    10    15    16   ar
    11    16    17   ar
    12    17    18   ar
    13    18    19    1
    14    18    20   ar
    15    20    21    1
    16    20    22   ar
    17     7     8   ar
    18     8     9   ar
    19     9    10   ar
    20    10     2   ar
    21     9     4   ar
    22    22    15   ar
    23     1    11    1
    24     1    12    1
@<TRIPOS>MOLECULE
*****
 22 24 0 0 0
SMALL
GASTEIGER

@<TRIPOS>ATOM
      1 N         137.6070  144.7512  162.5061 N.pl3   1  UNL1       -0.3375
      2 C         137.8612  143.2833  162.6811 C.ar    1  UNL1        0.1567
      3 N         137.5586  142.2102  161.6776 N.ar    1  UNL1       -0.2245
      4 C         137.9730  140.8944  162.2667 C.ar    1  UNL1        0.0894
      5 C         137.9138  139.4933  161.7344 C.ar    1  UNL1        0.0228
      6 C         138.4133  138.3520  162.5698 C.ar    1  UNL1        0.0385
      7 C         138.9720  138.6118  163.9374 C.ar    1  UNL1        0.1397
      8 C         139.0312  140.0130  164.4696 C.ar    1  UNL1        0.0450
      9 C         138.5317  141.1543  163.6343 C.ar    1  UNL1        0.0527
     10 S         138.4626  142.6306  163.8904 S.2     1  UNL1       -0.0519
     11 H         137.2060  145.0852  161.6713 H       1  UNL1        0.1442
     12 H         137.8411  145.3806  163.2260 H       1  UNL1        0.1442
     13 O         139.4715  137.4704  164.7728 O.3     1  UNL1       -0.4706
     14 C         140.8508  136.9250  164.5495 C.3     1  UNL1        0.2320
     15 C         142.0038  137.8622  164.3433 C.ar    1  UNL1        0.0221
     16 C         142.6512  138.5255  165.5226 C.ar    1  UNL1        0.0002
     17 C         143.8041  139.4627  165.3164 C.ar    1  UNL1        0.0120
     18 C         144.3095  139.7365  163.9309 C.ar    1  UNL1        0.0682
     19 CL        145.4624  140.6738  163.7248 Cl      1  UNL1       -0.0814
     20 C         143.6621  139.0732  162.7516 C.ar    1  UNL1        0.0680
     21 CL        144.1675  139.3471  161.3661 Cl      1  UNL1       -0.0814
     22 C         142.5092  138.1360  162.9578 C.ar    1  UNL1        0.0116
@<TRIPOS>BOND
     1     1     2    1
     2     2     3   ar
     3     3     4   ar
     4     4     5   ar
     5     5     6   ar
     6     6     7   ar
     7     7    13    1
     8    13    14    1
     9    14    15    1
    10    15    16   ar
    11    16    17   ar
    12    17    18   ar
    13    18    19    1
    14    18    20   ar
    15    20    21    1
    16    20    22   ar
    17     7     8   ar
    18     8     9   ar
    19     9    10   ar
    20    10     2   ar
    21     9     4   ar
    22    22    15   ar
    23     1    11    1
    24     1    12    1
@<TRIPOS>MOLECULE
*****
 22 24 0 0 0
SMALL
GASTEIGER

@<TRIPOS>ATOM
      1 N         146.2366  141.7961  163.5436 N.pl3   1  UNL1       -0.3375
      2 C         144.9137  142.5030  163.5608 C.ar    1  UNL1        0.1567
      3 N         144.3878  143.4158  162.4930 N.ar    1  UNL1       -0.2245
      4 C         143.0335  143.8981  162.9210 C.ar    1  UNL1        0.0894
      5 C         142.0434  144.8176  162.2697 C.ar    1  UNL1        0.0228
      6 C         140.7422  145.1224  162.9508 C.ar    1  UNL1        0.0385
      7 C         140.4311  144.5077  164.2832 C.ar    1  UNL1        0.1397
      8 C         141.4212  143.5882  164.9346 C.ar    1  UNL1        0.0450
      9 C         142.7223  143.2834  164.2535 C.ar    1  UNL1        0.0527
     10 S         143.8844  142.4212  164.6488 S.2     1  UNL1       -0.0519
     11 H         146.8475  141.9136  162.7806 H       1  UNL1        0.1442
     12 H         146.4939  141.2148  164.2953 H       1  UNL1        0.1442
     13 O         139.1298  144.8125  164.9643 O.3     1  UNL1       -0.4706
     14 C         137.8703  144.1341  164.5135 C.3     1  UNL1        0.2320
     15 C         137.9281  142.7483  163.9422 C.ar    1  UNL1        0.0221
     16 C         137.7640  142.5381  162.4661 C.ar    1  UNL1        0.0002
     17 C         137.8217  141.1523  161.8949 C.ar    1  UNL1        0.0120
     18 C         138.0436  139.9768  162.7998 C.ar    1  UNL1        0.0682
     19 CL        138.1013  138.5909  162.2286 Cl      1  UNL1       -0.0814
     20 C         138.2077  140.1869  164.2759 C.ar    1  UNL1        0.0680
     21 CL        138.4296  139.0114  165.1808 Cl      1  UNL1       -0.0814
     22 C         138.1500  141.5727  164.8471 C.ar    1  UNL1        0.0116
@<TRIPOS>BOND
     1     1     2    1
     2     2     3   ar
     3     3     4   ar
     4     4     5   ar
     5     5     6   ar
     6     6     7   ar
     7     7    13    1
     8    13    14    1
     9    14    15    1
    10    15    16   ar
    11    16    17   ar
    12    17    18   ar
    13    18    19    1
    14    18    20   ar
    15    20    21    1
    16    20    22   ar
    17     7     8   ar
    18     8     9   ar
    19     9    10   ar
    20    10     2   ar
    21     9     4   ar
    22    22    15   ar
    23     1    11    1
    24     1    12    1
@<TRIPOS>MOLECULE
*****
 22 24 0 0 0
SMALL
GASTEIGER

@<TRIPOS>ATOM
      1 N         138.0601  137.5965  162.0411 N.pl3   1  UNL1       -0.3375
      2 C         138.1012  139.0612  162.3620 C.ar    1  UNL1        0.1567
      3 N         138.0688  139.6643  163.7350 N.ar    1  UNL1       -0.2245
      4 C         138.1294  141.1558  163.5878 C.ar    1  UNL1        0.0894
      5 C         138.1301  142.2649  164.5976 C.ar    1  UNL1        0.0228
      6 C         138.2006  143.6927  164.1434 C.ar    1  UNL1        0.0385
      7 C         138.2705  144.0114  162.6794 C.ar    1  UNL1        0.1397
      8 C         138.2699  142.9024  161.6695 C.ar    1  UNL1        0.0450
      9 C         138.1994  141.4746  162.1237 C.ar    1  UNL1        0.0527
     10 S         138.1819  140.1800  161.3661 S.2     1  UNL1       -0.0519
     11 H         138.0069  136.9347  162.7680 H       1  UNL1        0.1442
     12 H         138.0864  137.2970  161.1037 H       1  UNL1        0.1442
     13 O         138.3411  145.4393  162.2252 O.3     1  UNL1       -0.4706
     14 C         139.6695  146.0628  161.9145 C.3     1  UNL1        0.2320
     15 C         140.9358  145.3094  162.1957 C.ar    1  UNL1        0.0221
     16 C         141.5477  145.3556  163.5644 C.ar    1  UNL1        0.0002
     17 C         142.8139  144.6022  163.8456 C.ar    1  UNL1        0.0120
     18 C         143.4681  143.8026  162.7581 C.ar    1  UNL1        0.0682
     19 CL        144.7344  143.0491  163.0394 Cl      1  UNL1       -0.0814
     20 C         142.8561  143.7563  161.3895 C.ar    1  UNL1        0.0680
     21 CL        143.5103  142.9567  160.3020 Cl      1  UNL1       -0.0814
     22 C         141.5900  144.5097  161.1083 C.ar    1  UNL1        0.0116
@<TRIPOS>BOND
     1     1     2    1
     2     2     3   ar
     3     3     4   ar
     4     4     5   ar
     5     5     6   ar
     6     6     7   ar
     7     7    13    1
     8    13    14    1
     9    14    15    1
    10    15    16   ar
    11    16    17   ar
    12    17    18   ar
    13    18    19    1
    14    18    20   ar
    15    20    21    1
    16    20    22   ar
    17     7     8   ar
    18     8     9   ar
    19     9    10   ar
    20    10     2   ar
    21     9     4   ar
    22    22    15   ar
    23     1    11    1
    24     1    12    1
@<TRIPOS>MOLECULE
*****
 22 24 0 0 0
SMALL
GASTEIGER

@<TRIPOS>ATOM
      1 N         142.5266  142.7006  171.4644 N.pl3   1  UNL1       -0.3375
      2 C         141.7520  142.1849  170.2879 C.ar    1  UNL1        0.1567
      3 N         141.7910  142.7398  168.8949 N.ar    1  UNL1       -0.2245
      4 C         140.8655  141.9217  168.0439 C.ar    1  UNL1        0.0894
      5 C         140.5002  142.0053  166.5915 C.ar    1  UNL1        0.0228
      6 C         139.5239  141.0285  166.0063 C.ar    1  UNL1        0.0385
      7 C         138.9128  139.9681  166.8734 C.ar    1  UNL1        0.1397
      8 C         139.2781  139.8844  168.3258 C.ar    1  UNL1        0.0450
      9 C         140.2544  140.8612  168.9111 C.ar    1  UNL1        0.0527
     10 S         140.8023  141.0239  170.2979 S.2     1  UNL1       -0.0519
     11 H         143.1281  143.4726  171.3576 H       1  UNL1        0.1442
     12 H         142.4335  142.2670  172.3434 H       1  UNL1        0.1442
     13 O         137.9364  138.9912  166.2881 O.3     1  UNL1       -0.4706
     14 C         138.4280  137.7066  165.6898 C.3     1  UNL1        0.2320
     15 C         139.3640  137.7349  164.5179 C.ar    1  UNL1        0.0221
     16 C         140.8407  137.5844  164.7337 C.ar    1  UNL1        0.0002
     17 C         141.7766  137.6126  163.5618 C.ar    1  UNL1        0.0120
     18 C         141.2357  137.7914  162.1742 C.ar    1  UNL1        0.0682
     19 CL        142.1717  137.8197  161.0023 Cl      1  UNL1       -0.0814
     20 C         139.7590  137.9419  161.9584 C.ar    1  UNL1        0.0680
     21 CL        139.2182  138.1207  160.5708 Cl      1  UNL1       -0.0814
     22 C         138.8232  137.9137  163.1303 C.ar    1  UNL1        0.0116
@<TRIPOS>BOND
     1     1     2    1
     2     2     3   ar
     3     3     4   ar
     4     4     5   ar
     5     5     6   ar
     6     6     7   ar
     7     7    13    1
     8    13    14    1
     9    14    15    1
    10    15    16   ar
    11    16    17   ar
    12    17    18   ar
    13    18    19    1
    14    18    20   ar
    15    20    21    1
    16    20    22   ar
    17     7     8   ar
    18     8     9   ar
    19     9    10   ar
    20    10     2   ar
    21     9     4   ar
    22    22    15   ar
    23     1    11    1
    24     1    12    1
@<TRIPOS>MOLECULE
*****
 22 24 0 0 0
SMALL
GASTEIGER

@<TRIPOS>ATOM
      1 N         139.2496  146.5580  161.4610 N.pl3   1  UNL1       -0.3375
      2 C         139.1985  145.2233  162.1437 C.ar    1  UNL1        0.1567
      3 N         137.9861  144.5979  162.7674 N.ar    1  UNL1       -0.2245
      4 C         138.3891  143.2678  163.3318 C.ar    1  UNL1        0.0894
      5 C         137.6141  142.2103  164.0605 C.ar    1  UNL1        0.0228
      6 C         138.3005  140.9562  164.5144 C.ar    1  UNL1        0.0385
      7 C         139.7620  140.7596  164.2395 C.ar    1  UNL1        0.1397
      8 C         140.5370  141.8172  163.5109 C.ar    1  UNL1        0.0450
      9 C         139.8505  143.0712  163.0570 C.ar    1  UNL1        0.0527
     10 S         140.3507  144.2798  162.3227 S.2     1  UNL1       -0.0519
     11 H         138.4357  147.1077  161.3931 H       1  UNL1        0.1442
     12 H         140.0971  146.8842  161.0807 H       1  UNL1        0.1442
     13 O         140.4484  139.5055  164.6934 O.3     1  UNL1       -0.4706
     14 C         141.3035  139.5224  165.9257 C.3     1  UNL1        0.2320
     15 C         140.9161  140.3775  167.0957 C.ar    1  UNL1        0.0221
     16 C         141.5625  141.7166  167.2927 C.ar    1  UNL1        0.0002
     17 C         141.1751  142.5716  168.4626 C.ar    1  UNL1        0.0120
     18 C         140.1412  142.0875  169.4357 C.ar    1  UNL1        0.0682
     19 CL        139.7538  142.9426  170.6057 Cl      1  UNL1       -0.0814
     20 C         139.4948  140.7484  169.2387 C.ar    1  UNL1        0.0680
     21 CL        138.4609  140.2643  170.2117 Cl      1  UNL1       -0.0814
     22 C         139.8822  139.8934  168.0687 C.ar    1  UNL1        0.0116
@<TRIPOS>BOND
     1     1     2    1
     2     2     3   ar
     3     3     4   ar
     4     4     5   ar
     5     5     6   ar
     6     6     7   ar
     7     7    13    1
     8    13    14    1
     9    14    15    1
    10    15    16   ar
    11    16    17   ar
    12    17    18   ar
    13    18    19    1
    14    18    20   ar
    15    20    21    1
    16    20    22   ar
    17     7     8   ar
    18     8     9   ar
    19     9    10   ar
    20    10     2   ar
    21     9     4   ar
    22    22    15   ar
    23     1    11    1
    24     1    12    1
@<TRIPOS>MOLECULE
*****
 22 24 0 0 0
SMALL
GASTEIGER

@<TRIPOS>ATOM
      1 N         146.3207  141.7829  163.4845 N.pl3   1  UNL1       -0.3375
      2 C         145.1605  140.8352  163.5609 C.ar    1  UNL1        0.1567
      3 N         144.7615  140.0245  164.7582 N.ar    1  UNL1       -0.2245
      4 C         143.5499  139.2201  164.3906 C.ar    1  UNL1        0.0894
      5 C         142.7201  138.2427  165.1689 C.ar    1  UNL1        0.0228
      6 C         141.5405  137.5788  164.5228 C.ar    1  UNL1        0.0385
      7 C         141.1906  137.8923  163.0982 C.ar    1  UNL1        0.1397
      8 C         142.0205  138.8698  162.3199 C.ar    1  UNL1        0.0450
      9 C         143.2001  139.5337  162.9660 C.ar    1  UNL1        0.0527
     10 S         144.1955  140.5319  162.4533 S.2     1  UNL1       -0.0519
     11 H         146.9002  141.9157  164.2692 H       1  UNL1        0.1442
     12 H         146.5026  142.2721  162.6498 H       1  UNL1        0.1442
     13 O         140.0109  137.2283  162.4520 O.3     1  UNL1       -0.4706
     14 C         138.6276  137.7548  162.6955 C.3     1  UNL1        0.2320
     15 C         138.4342  139.1663  163.1651 C.ar    1  UNL1        0.0221
     16 C         138.4214  139.4731  164.6333 C.ar    1  UNL1        0.0002
     17 C         138.2279  140.8845  165.1028 C.ar    1  UNL1        0.0120
     18 C         138.0473  141.9891  164.1041 C.ar    1  UNL1        0.0682
     19 CL        137.8538  143.4005  164.5737 Cl      1  UNL1       -0.0814
     20 C         138.0600  141.6822  162.6359 C.ar    1  UNL1        0.0680
     21 CL        137.8794  142.7868  161.6373 Cl      1  UNL1       -0.0814
     22 C         138.2535  140.2708  162.1664 C.ar    1  UNL1        0.0116
@<TRIPOS>BOND
     1     1     2    1
     2     2     3   ar
     3     3     4   ar
     4     4     5   ar
     5     5     6   ar
     6     6     7   ar
     7     7    13    1
     8    13    14    1
     9    14    15    1
    10    15    16   ar
    11    16    17   ar
    12    17    18   ar
    13    18    19    1
    14    18    20   ar
    15    20    21    1
    16    20    22   ar
    17     7     8   ar
    18     8     9   ar
    19     9    10   ar
    20    10     2   ar
    21     9     4   ar
    22    22    15   ar
    23     1    11    1
    24     1    12    1
@<TRIPOS>MOLECULE
*****
 22 24 0 0 0
SMALL
GASTEIGER

@<TRIPOS>ATOM
      1 N         138.9760  145.8245  161.9102 N.pl3   1  UNL1       -0.3375
      2 C         139.0036  144.6528  162.8463 C.ar    1  UNL1        0.1567
      3 N         140.0021  144.4229  163.9418 N.ar    1  UNL1       -0.2245
      4 C         139.6531  143.1333  164.6239 C.ar    1  UNL1        0.0894
      5 C         140.2841  142.4021  165.7716 C.ar    1  UNL1        0.0228
      6 C         139.7009  141.1039  166.2453 C.ar    1  UNL1        0.0385
      7 C         138.4867  140.5368  165.5713 C.ar    1  UNL1        0.1397
      8 C         137.8558  141.2680  164.4236 C.ar    1  UNL1        0.0450
      9 C         138.4390  142.5662  163.9499 C.ar    1  UNL1        0.0527
     10 S         138.0376  143.5054  162.8513 S.2     1  UNL1       -0.0519
     11 H         139.6571  146.5314  161.9861 H       1  UNL1        0.1442
     12 H         138.2769  145.8867  161.2199 H       1  UNL1        0.1442
     13 O         137.9035  139.2385  166.0450 O.3     1  UNL1       -0.4706
     14 C         138.5373  137.9402  165.6418 C.3     1  UNL1        0.2320
     15 C         139.4741  137.8945  164.4711 C.ar    1  UNL1        0.0221
     16 C         140.9489  137.7395  164.6964 C.ar    1  UNL1        0.0002
     17 C         141.8857  137.6938  163.5258 C.ar    1  UNL1        0.0120
     18 C         141.3476  137.8032  162.1300 C.ar    1  UNL1        0.0682
     19 CL        142.2845  137.7576  160.9593 Cl      1  UNL1       -0.0814
     20 C         139.8728  137.9582  161.9047 C.ar    1  UNL1        0.0680
     21 CL        139.3348  138.0676  160.5088 Cl      1  UNL1       -0.0814
     22 C         138.9361  138.0039  163.0752 C.ar    1  UNL1        0.0116
@<TRIPOS>BOND
     1     1     2    1
     2     2     3   ar
     3     3     4   ar
     4     4     5   ar
     5     5     6   ar
     6     6     7   ar
     7     7    13    1
     8    13    14    1
     9    14    15    1
    10    15    16   ar
    11    16    17   ar
    12    17    18   ar
    13    18    19    1
    14    18    20   ar
    15    20    21    1
    16    20    22   ar
    17     7     8   ar
    18     8     9   ar
    19     9    10   ar
    20    10     2   ar
    21     9     4   ar
    22    22    15   ar
    23     1    11    1
    24     1    12    1
