@<TRIPOS>MOLECULE
*****
 38 44 0 0 0
SMALL
GASTEIGER

@<TRIPOS>ATOM
      1 C         138.5482  141.7945  164.4311 C.3     1  UNL1        0.0955
      2 C         138.8926  143.0925  165.0995 C.3     1  UNL1        0.0287
      3 C         138.9102  144.3641  164.3041 C.3     1  UNL1        0.0193
      4 C         138.5834  144.3378  162.8404 C.3     1  UNL1        0.0700
      5 C         138.2390  143.0399  162.1721 C.3     1  UNL1        0.0193
      6 C         138.2214  141.7681  162.9674 C.3     1  UNL1        0.0287
      7 C         138.5607  143.6153  163.2348 C.3     1  UNL1        0.1562
      8 O         138.5448  142.4655  163.9540 O.3     1  UNL1       -0.3571
      9 N         138.6010  145.6095  162.0450 N.3     1  UNL1       -0.2925
     10 H         138.2051  146.3356  162.6420 H       1  UNL1        0.1236
     11 C         139.8981  146.1443  161.5146 C.3     1  UNL1        0.1171
     12 C         141.0947  145.2454  161.4133 C.ar    1  UNL1        0.0997
     13 C         141.8263  144.8277  162.6544 C.ar    1  UNL1        0.0597
     14 C         143.0228  143.9288  162.5530 C.ar    1  UNL1        0.1943
     15 C         143.4877  143.4476  161.2105 C.ar    1  UNL1        0.2784
     16 N         142.7561  143.8653  159.9694 N.ar    1  UNL1       -0.1073
     17 N         141.5596  144.7642  160.0708 N.ar    1  UNL1       -0.1479
     18 O         144.6843  142.5487  161.1091 O.3     1  UNL1       -0.4531
     19 C         145.4158  142.1310  162.3503 C.3     1  UNL1        0.2543
     20 C         144.9509  142.6123  163.6926 C.3     1  UNL1        0.2528
     21 O         143.7543  143.5112  163.7941 O.3     1  UNL1       -0.4666
     22 C         138.5306  140.5228  165.2265 C.3     1  UNL1        0.0604
     23 O         138.8806  141.0170  170.3172 O.2     1  UNL1       -0.2670
     24 C         140.0870  140.3651  169.7094 C.ar    1  UNL1        0.2611
     25 C         141.2282  139.9363  170.5834 C.ar    1  UNL1        0.0623
     26 C         142.4346  139.2843  169.9755 C.ar    1  UNL1        0.0254
     27 C         142.4998  139.0611  168.4937 C.ar    1  UNL1        0.0972
     28 N         143.5640  138.4427  167.6244 N.ar    1  UNL1       -0.2400
     29 C         143.4872  138.2859  166.1346 C.ar    1  UNL1        0.1282
     30 C         142.2755  138.7652  165.3916 C.ar    1  UNL1        0.1588
     31 F         142.1987  138.6084  163.9018 F       1  UNL1       -0.2027
     32 C         141.1406  139.4012  166.1383 C.ar    1  UNL1        0.0500
     33 C         141.3586  139.4898  167.6197 C.ar    1  UNL1        0.0806
     34 N         140.1522  140.1418  168.2276 N.ar    1  UNL1       -0.2915
     35 C         139.1886  140.4561  167.1218 C.3     1  UNL1        0.1402
     36 C         139.7995  139.9984  165.8305 C.3     1  UNL1        0.1335
     37 O         140.1451  139.6503  164.4130 O.3     1  UNL1       -0.3806
     38 H         139.4196  139.9190  163.8280 H       1  UNL1        0.2108
@<TRIPOS>BOND
     1    23    24    2
     2    24    25   ar
     3    25    26   ar
     4    26    27   ar
     5    27    28   ar
     6    28    29   ar
     7    29    30   ar
     8    30    31    1
     9    30    32   ar
    10    32    33   ar
    11    33    34   ar
    12    34    35    1
    13    35    36    1
    14    36    37    1
    15    36    22    1
    16    22     1    1
    17     1     2    1
    18     2     3    1
    19     3     4    1
    20     4     9    1
    21     9    11    1
    22    11    12    1
    23    12    13   ar
    24    13    14   ar
    25    14    15   ar
    26    15    16   ar
    27    16    17   ar
    28    15    18    1
    29    18    19    1
    30    19    20    1
    31    20    21    1
    32     4     5    1
    33     5     6    1
    34     4     7    1
    35     7     8    1
    36    34    24   ar
    37     6     1    1
    38    33    27   ar
    39     8     1    1
    40    36    32    1
    41    17    12   ar
    42    21    14    1
    43    37    38    1
    44     9    10    1
@<TRIPOS>MOLECULE
*****
 38 44 0 0 0
SMALL
GASTEIGER

@<TRIPOS>ATOM
      1 C         143.1008  143.0582  164.2696 C.3     1  UNL1        0.0955
      2 C         143.6813  142.6185  162.9581 C.3     1  UNL1        0.0287
      3 C         143.3000  143.3292  161.6933 C.3     1  UNL1        0.0193
      4 C         142.3384  144.4794  161.7399 C.3     1  UNL1        0.0700
      5 C         141.7580  144.9190  163.0514 C.3     1  UNL1        0.0193
      6 C         142.1392  144.2084  164.3162 C.3     1  UNL1        0.0287
      7 C         142.5173  144.1209  162.4594 C.3     1  UNL1        0.1562
      8 O         142.8620  143.4784  163.6030 O.3     1  UNL1       -0.3571
      9 N         141.9571  145.1900  160.4752 N.3     1  UNL1       -0.2925
     10 H         142.7585  145.1245  159.8475 H       1  UNL1        0.1236
     11 C         140.7579  144.7403  159.6946 C.3     1  UNL1        0.1171
     12 C         139.9098  143.6133  160.2055 C.ar    1  UNL1        0.0997
     13 C         140.2711  142.1947  159.8784 C.ar    1  UNL1        0.0597
     14 C         139.4231  141.0679  160.3894 C.ar    1  UNL1        0.1943
     15 C         138.2138  141.3597  161.2275 C.ar    1  UNL1        0.2784
     16 N         137.8525  142.7783  161.5546 N.ar    1  UNL1       -0.1073
     17 N         138.7005  143.9051  161.0436 N.ar    1  UNL1       -0.1479
     18 O         137.3657  140.2329  161.7385 O.3     1  UNL1       -0.4531
     19 C         137.7271  138.8142  161.4114 C.3     1  UNL1        0.2543
     20 C         138.9364  138.5225  160.5733 C.3     1  UNL1        0.2528
     21 O         139.7844  139.6494  160.0623 O.3     1  UNL1       -0.4666
     22 C         143.4820  142.3476  165.5344 C.3     1  UNL1        0.0604
     23 O         143.7786  143.4235  170.5381 O.2     1  UNL1       -0.2670
     24 C         142.6308  142.5181  170.2023 C.ar    1  UNL1        0.2611
     25 C         141.7182  142.0299  171.2881 C.ar    1  UNL1        0.0623
     26 C         140.5704  141.1244  170.9523 C.ar    1  UNL1        0.0254
     27 C         140.3352  140.7072  169.5309 C.ar    1  UNL1        0.0972
     28 N         139.2828  139.8239  168.9122 N.ar    1  UNL1       -0.2400
     29 C         139.1732  139.4931  167.4532 C.ar    1  UNL1        0.1282
     30 C         140.1643  140.0585  166.4795 C.ar    1  UNL1        0.1588
     31 F         140.0546  139.7277  165.0206 F       1  UNL1       -0.2027
     32 C         141.2649  140.9547  166.9647 C.ar    1  UNL1        0.0500
     33 C         141.2477  141.1954  168.4452 C.ar    1  UNL1        0.0806
     34 N         142.3955  142.1009  168.7809 N.ar    1  UNL1       -0.2915
     35 C         143.1221  142.4196  167.5079 C.3     1  UNL1        0.1402
     36 C         142.4234  141.7112  166.3855 C.3     1  UNL1        0.1335
     37 O         141.9459  141.1359  165.0851 O.3     1  UNL1       -0.3806
     38 H         142.5226  141.4388  164.3663 H       1  UNL1        0.2108
@<TRIPOS>BOND
     1    23    24    2
     2    24    25   ar
     3    25    26   ar
     4    26    27   ar
     5    27    28   ar
     6    28    29   ar
     7    29    30   ar
     8    30    31    1
     9    30    32   ar
    10    32    33   ar
    11    33    34   ar
    12    34    35    1
    13    35    36    1
    14    36    37    1
    15    36    22    1
    16    22     1    1
    17     1     2    1
    18     2     3    1
    19     3     4    1
    20     4     9    1
    21     9    11    1
    22    11    12    1
    23    12    13   ar
    24    13    14   ar
    25    14    15   ar
    26    15    16   ar
    27    16    17   ar
    28    15    18    1
    29    18    19    1
    30    19    20    1
    31    20    21    1
    32     4     5    1
    33     5     6    1
    34     4     7    1
    35     7     8    1
    36    34    24   ar
    37     6     1    1
    38    33    27   ar
    39     8     1    1
    40    36    32    1
    41    17    12   ar
    42    21    14    1
    43    37    38    1
    44     9    10    1
@<TRIPOS>MOLECULE
*****
 38 44 0 0 0
SMALL
GASTEIGER

@<TRIPOS>ATOM
      1 C         138.4742  139.3469  164.6330 C.3     1  UNL1        0.0955
      2 C         137.8052  140.6889  164.5891 C.3     1  UNL1        0.0287
      3 C         137.4928  141.3283  163.2687 C.3     1  UNL1        0.0193
      4 C         137.8491  140.6259  161.9921 C.3     1  UNL1        0.0700
      5 C         138.5180  139.2840  162.0360 C.3     1  UNL1        0.0193
      6 C         138.8306  138.6445  163.3564 C.3     1  UNL1        0.0287
      7 C         138.0403  140.2358  162.6917 C.3     1  UNL1        0.1562
      8 O         138.3229  139.6576  163.8856 O.3     1  UNL1       -0.3571
      9 N         137.5367  141.2653  160.6717 N.3     1  UNL1       -0.2925
     10 H         136.6729  141.7930  160.7972 H       1  UNL1        0.1236
     11 C         138.5256  142.1978  160.0373 C.3     1  UNL1        0.1171
     12 C         139.4359  143.0237  160.8971 C.ar    1  UNL1        0.0997
     13 C         140.8810  142.6471  161.0376 C.ar    1  UNL1        0.0597
     14 C         141.7912  143.4731  161.8974 C.ar    1  UNL1        0.1943
     15 C         141.2563  144.6758  162.6167 C.ar    1  UNL1        0.2784
     16 N         139.8112  145.0525  162.4762 N.ar    1  UNL1       -0.1073
     17 N         138.9010  144.2264  161.6164 N.ar    1  UNL1       -0.1479
     18 O         142.1665  145.5018  163.4764 O.3     1  UNL1       -0.4531
     19 C         143.6117  145.1250  163.6169 C.3     1  UNL1        0.2543
     20 C         144.1465  143.9224  162.8976 C.3     1  UNL1        0.2528
     21 O         143.2363  143.0964  162.0378 O.3     1  UNL1       -0.4666
     22 C         138.7867  138.7075  165.9534 C.3     1  UNL1        0.0604
     23 O         143.2046  141.0605  164.8456 O.2     1  UNL1       -0.2670
     24 C         142.7330  141.3316  166.2434 C.ar    1  UNL1        0.2611
     25 C         143.5399  142.2137  167.1494 C.ar    1  UNL1        0.0623
     26 C         143.0682  142.4848  168.5473 C.ar    1  UNL1        0.0254
     27 C         141.7897  141.8738  169.0392 C.ar    1  UNL1        0.0972
     28 N         141.0856  141.9691  170.3680 N.ar    1  UNL1       -0.2400
     29 C         139.7939  141.2918  170.7181 C.ar    1  UNL1        0.1282
     30 C         139.0970  140.4351  169.7030 C.ar    1  UNL1        0.1588
     31 F         137.8053  139.7578  170.0532 F       1  UNL1       -0.2027
     32 C         139.6920  140.2556  168.3378 C.ar    1  UNL1        0.0500
     33 C         140.9828  140.9917  168.1332 C.ar    1  UNL1        0.0806
     34 N         141.4545  140.7206  166.7354 N.ar    1  UNL1       -0.2915
     35 C         140.4551  139.8169  166.0760 C.3     1  UNL1        0.1402
     36 C         139.3658  139.5295  167.0664 C.3     1  UNL1        0.1335
     37 O         138.1555  139.0703  167.8241 O.3     1  UNL1       -0.3806
     38 H         137.6171  138.4968  167.2566 H       1  UNL1        0.2108
@<TRIPOS>BOND
     1    23    24    2
     2    24    25   ar
     3    25    26   ar
     4    26    27   ar
     5    27    28   ar
     6    28    29   ar
     7    29    30   ar
     8    30    31    1
     9    30    32   ar
    10    32    33   ar
    11    33    34   ar
    12    34    35    1
    13    35    36    1
    14    36    37    1
    15    36    22    1
    16    22     1    1
    17     1     2    1
    18     2     3    1
    19     3     4    1
    20     4     9    1
    21     9    11    1
    22    11    12    1
    23    12    13   ar
    24    13    14   ar
    25    14    15   ar
    26    15    16   ar
    27    16    17   ar
    28    15    18    1
    29    18    19    1
    30    19    20    1
    31    20    21    1
    32     4     5    1
    33     5     6    1
    34     4     7    1
    35     7     8    1
    36    34    24   ar
    37     6     1    1
    38    33    27   ar
    39     8     1    1
    40    36    32    1
    41    17    12   ar
    42    21    14    1
    43    37    38    1
    44     9    10    1
@<TRIPOS>MOLECULE
*****
 38 44 0 0 0
SMALL
GASTEIGER

@<TRIPOS>ATOM
      1 C         138.5207  141.9114  164.4468 C.3     1  UNL1        0.0955
      2 C         137.9879  141.9282  163.0446 C.3     1  UNL1        0.0287
      3 C         137.9989  143.2025  162.2533 C.3     1  UNL1        0.0193
      4 C         138.5426  144.4599  162.8641 C.3     1  UNL1        0.0700
      5 C         139.0754  144.4431  164.2662 C.3     1  UNL1        0.0193
      6 C         139.0644  143.1689  165.0576 C.3     1  UNL1        0.0287
      7 C         138.5575  143.7858  163.3368 C.3     1  UNL1        0.1562
      8 O         138.5476  142.6336  164.0523 O.3     1  UNL1       -0.3571
      9 N         138.5536  145.7342  162.0729 N.3     1  UNL1       -0.2925
     10 H         138.2347  146.4729  162.6998 H       1  UNL1        0.1236
     11 C         139.8284  146.2175  161.4473 C.3     1  UNL1        0.1171
     12 C         140.8481  145.2295  160.9635 C.ar    1  UNL1        0.0997
     13 C         140.6622  144.5463  159.6412 C.ar    1  UNL1        0.0597
     14 C         141.6820  143.5583  159.1575 C.ar    1  UNL1        0.1943
     15 C         142.8876  143.2534  159.9962 C.ar    1  UNL1        0.2784
     16 N         143.0735  143.9366  161.3186 N.ar    1  UNL1       -0.1073
     17 N         142.0538  144.9246  161.8022 N.ar    1  UNL1       -0.1479
     18 O         143.9074  142.2654  159.5125 O.3     1  UNL1       -0.4531
     19 C         143.7214  141.5823  158.1901 C.3     1  UNL1        0.2543
     20 C         142.5157  141.8871  157.3515 C.3     1  UNL1        0.2528
     21 O         141.4960  142.8751  157.8351 O.3     1  UNL1       -0.4666
     22 C         138.5097  140.6371  165.2380 C.3     1  UNL1        0.0604
     23 O         138.9438  140.9116  170.3389 O.2     1  UNL1       -0.2670
     24 C         140.1413  140.2900  169.6834 C.ar    1  UNL1        0.2611
     25 C         141.2978  139.8271  170.5188 C.ar    1  UNL1        0.0623
     26 C         142.4953  139.2055  169.8633 C.ar    1  UNL1        0.0254
     27 C         142.5362  139.0468  168.3724 C.ar    1  UNL1        0.0972
     28 N         143.5870  138.4697  167.4596 N.ar    1  UNL1       -0.2400
     29 C         143.4856  138.3773  165.9659 C.ar    1  UNL1        0.1282
     30 C         142.2606  138.8847  165.2645 C.ar    1  UNL1        0.1588
     31 F         142.1592  138.7923  163.7708 F       1  UNL1       -0.2027
     32 C         141.1370  139.4846  166.0568 C.ar    1  UNL1        0.0500
     33 C         141.3796  139.5097  167.5369 C.ar    1  UNL1        0.0806
     34 N         140.1822  140.1313  168.1924 N.ar    1  UNL1       -0.2915
     35 C         139.1995  140.4903  167.1174 C.3     1  UNL1        0.1402
     36 C         139.7897  140.0907  165.7976 C.3     1  UNL1        0.1335
     37 O         140.1122  139.8052  164.3608 O.3     1  UNL1       -0.3806
     38 H         139.3764  140.0970  163.8001 H       1  UNL1        0.2108
@<TRIPOS>BOND
     1    23    24    2
     2    24    25   ar
     3    25    26   ar
     4    26    27   ar
     5    27    28   ar
     6    28    29   ar
     7    29    30   ar
     8    30    31    1
     9    30    32   ar
    10    32    33   ar
    11    33    34   ar
    12    34    35    1
    13    35    36    1
    14    36    37    1
    15    36    22    1
    16    22     1    1
    17     1     2    1
    18     2     3    1
    19     3     4    1
    20     4     9    1
    21     9    11    1
    22    11    12    1
    23    12    13   ar
    24    13    14   ar
    25    14    15   ar
    26    15    16   ar
    27    16    17   ar
    28    15    18    1
    29    18    19    1
    30    19    20    1
    31    20    21    1
    32     4     5    1
    33     5     6    1
    34     4     7    1
    35     7     8    1
    36    34    24   ar
    37     6     1    1
    38    33    27   ar
    39     8     1    1
    40    36    32    1
    41    17    12   ar
    42    21    14    1
    43    37    38    1
    44     9    10    1
@<TRIPOS>MOLECULE
*****
 38 44 0 0 0
SMALL
GASTEIGER

@<TRIPOS>ATOM
      1 C         143.0974  142.7173  164.4622 C.3     1  UNL1        0.0955
      2 C         142.1264  143.8549  164.5774 C.3     1  UNL1        0.0287
      3 C         141.8006  144.6877  163.3731 C.3     1  UNL1        0.0193
      4 C         142.4456  144.3829  162.0536 C.3     1  UNL1        0.0700
      5 C         143.4165  143.2453  161.9385 C.3     1  UNL1        0.0193
      6 C         143.7424  142.4125  163.1428 C.3     1  UNL1        0.0287
      7 C         142.6556  143.8985  162.6857 C.3     1  UNL1        0.1562
      8 O         142.9502  143.1455  163.7746 O.3     1  UNL1       -0.3571
      9 N         142.1198  145.2156  160.8493 N.3     1  UNL1       -0.2925
     10 H         142.9600  145.2391  160.2715 H       1  UNL1        0.1236
     11 C         140.9863  144.8216  159.9495 C.3     1  UNL1        0.1171
     12 C         140.0484  143.7256  160.3607 C.ar    1  UNL1        0.0997
     13 C         140.3572  142.3014  160.0054 C.ar    1  UNL1        0.0597
     14 C         139.4192  141.2054  160.4167 C.ar    1  UNL1        0.1943
     15 C         138.1724  141.5337  161.1833 C.ar    1  UNL1        0.2784
     16 N         137.8636  142.9579  161.5386 N.ar    1  UNL1       -0.1073
     17 N         138.8016  144.0538  161.1273 N.ar    1  UNL1       -0.1479
     18 O         137.2344  140.4378  161.5946 O.3     1  UNL1       -0.4531
     19 C         137.5434  139.0135  161.2392 C.3     1  UNL1        0.2543
     20 C         138.7902  138.6854  160.4727 C.3     1  UNL1        0.2528
     21 O         139.7281  139.7813  160.0614 O.3     1  UNL1       -0.4666
     22 C         143.4232  141.8845  165.6665 C.3     1  UNL1        0.0604
     23 O         139.8312  138.6880  163.8883 O.2     1  UNL1       -0.2670
     24 C         139.5971  139.0953  165.3129 C.ar    1  UNL1        0.2611
     25 C         138.4063  138.5687  166.0575 C.ar    1  UNL1        0.0623
     26 C         138.1723  138.9760  167.4821 C.ar    1  UNL1        0.0254
     27 C         139.1291  139.9099  168.1620 C.ar    1  UNL1        0.0972
     28 N         139.1455  140.4788  169.5571 N.ar    1  UNL1       -0.2400
     29 C         140.1831  141.4148  170.1024 C.ar    1  UNL1        0.1282
     30 C         141.3238  141.8575  169.2348 C.ar    1  UNL1        0.1588
     31 F         142.3614  142.7935  169.7801 F       1  UNL1       -0.2027
     32 C         141.4269  141.3643  167.8220 C.ar    1  UNL1        0.0500
     33 C         140.3199  140.4365  167.4173 C.ar    1  UNL1        0.0806
     34 N         140.5539  140.0292  165.9928 N.ar    1  UNL1       -0.2915
     35 C         141.8056  140.7053  165.5170 C.3     1  UNL1        0.1402
     36 C         142.3451  141.5304  166.6475 C.3     1  UNL1        0.1335
     37 O         143.1100  142.4296  167.5730 O.3     1  UNL1       -0.3806
     38 H         143.8868  142.7829  167.1118 H       1  UNL1        0.2108
@<TRIPOS>BOND
     1    23    24    2
     2    24    25   ar
     3    25    26   ar
     4    26    27   ar
     5    27    28   ar
     6    28    29   ar
     7    29    30   ar
     8    30    31    1
     9    30    32   ar
    10    32    33   ar
    11    33    34   ar
    12    34    35    1
    13    35    36    1
    14    36    37    1
    15    36    22    1
    16    22     1    1
    17     1     2    1
    18     2     3    1
    19     3     4    1
    20     4     9    1
    21     9    11    1
    22    11    12    1
    23    12    13   ar
    24    13    14   ar
    25    14    15   ar
    26    15    16   ar
    27    16    17   ar
    28    15    18    1
    29    18    19    1
    30    19    20    1
    31    20    21    1
    32     4     5    1
    33     5     6    1
    34     4     7    1
    35     7     8    1
    36    34    24   ar
    37     6     1    1
    38    33    27   ar
    39     8     1    1
    40    36    32    1
    41    17    12   ar
    42    21    14    1
    43    37    38    1
    44     9    10    1
@<TRIPOS>MOLECULE
*****
 38 44 0 0 0
SMALL
GASTEIGER

@<TRIPOS>ATOM
      1 C         138.7300  138.9460  164.2017 C.3     1  UNL1        0.0955
      2 C         138.0019  140.2156  163.8727 C.3     1  UNL1        0.0287
      3 C         137.5048  140.4552  162.4779 C.3     1  UNL1        0.0193
      4 C         137.7359  139.4253  161.4121 C.3     1  UNL1        0.0700
      5 C         138.4639  138.1558  161.7411 C.3     1  UNL1        0.0193
      6 C         138.9610  137.9161  163.1359 C.3     1  UNL1        0.0287
      7 C         138.0269  139.2493  162.1620 C.3     1  UNL1        0.1562
      8 O         138.4763  139.0327  163.4232 O.3     1  UNL1       -0.3571
      9 N         137.2388  139.6649  160.0172 N.3     1  UNL1       -0.2925
     10 H         136.2965  140.0461  160.1018 H       1  UNL1        0.1236
     11 C         137.9945  140.5784  159.0984 C.3     1  UNL1        0.1171
     12 C         138.9432  141.5937  159.6636 C.ar    1  UNL1        0.0997
     13 C         140.3324  141.1857  160.0554 C.ar    1  UNL1        0.0597
     14 C         141.2810  142.2010  160.6206 C.ar    1  UNL1        0.1943
     15 C         140.8403  143.6243  160.7940 C.ar    1  UNL1        0.2784
     16 N         139.4510  144.0322  160.4022 N.ar    1  UNL1       -0.1073
     17 N         138.5025  143.0170  159.8370 N.ar    1  UNL1       -0.1479
     18 O         141.7888  144.6395  161.3592 O.3     1  UNL1       -0.4531
     19 C         143.1781  144.2314  161.7510 C.3     1  UNL1        0.2543
     20 C         143.6187  142.8082  161.5776 C.3     1  UNL1        0.2528
     21 O         142.6702  141.7929  161.0124 O.3     1  UNL1       -0.4666
     22 C         139.2271  138.7064  165.5965 C.3     1  UNL1        0.0604
     23 O         138.0420  140.0647  170.3958 O.2     1  UNL1       -0.2670
     24 C         139.2883  140.7297  169.8914 C.ar    1  UNL1        0.2611
     25 C         140.0418  141.6794  170.7748 C.ar    1  UNL1        0.0623
     26 C         141.2881  142.3445  170.2704 C.ar    1  UNL1        0.0254
     27 C         141.7809  142.0599  168.8826 C.ar    1  UNL1        0.0972
     28 N         142.9781  142.5728  168.1249 N.ar    1  UNL1       -0.2400
     29 C         143.3476  142.1923  166.7218 C.ar    1  UNL1        0.1282
     30 C         142.4933  141.2249  165.9575 C.ar    1  UNL1        0.1588
     31 F         142.8628  140.8443  164.5544 F       1  UNL1       -0.2027
     32 C         141.2695  140.6379  166.5962 C.ar    1  UNL1        0.0500
     33 C         141.0275  141.1102  167.9992 C.ar    1  UNL1        0.0806
     34 N         139.7812  140.4451  168.5036 N.ar    1  UNL1       -0.2915
     35 C         139.2530  139.5619  167.4123 C.3     1  UNL1        0.1402
     36 C         140.1728  139.6810  166.2335 C.3     1  UNL1        0.1335
     37 O         140.8950  139.5964  164.9215 O.3     1  UNL1       -0.3806
     38 H         140.4246  138.9862  164.3323 H       1  UNL1        0.2108
@<TRIPOS>BOND
     1    23    24    2
     2    24    25   ar
     3    25    26   ar
     4    26    27   ar
     5    27    28   ar
     6    28    29   ar
     7    29    30   ar
     8    30    31    1
     9    30    32   ar
    10    32    33   ar
    11    33    34   ar
    12    34    35    1
    13    35    36    1
    14    36    37    1
    15    36    22    1
    16    22     1    1
    17     1     2    1
    18     2     3    1
    19     3     4    1
    20     4     9    1
    21     9    11    1
    22    11    12    1
    23    12    13   ar
    24    13    14   ar
    25    14    15   ar
    26    15    16   ar
    27    16    17   ar
    28    15    18    1
    29    18    19    1
    30    19    20    1
    31    20    21    1
    32     4     5    1
    33     5     6    1
    34     4     7    1
    35     7     8    1
    36    34    24   ar
    37     6     1    1
    38    33    27   ar
    39     8     1    1
    40    36    32    1
    41    17    12   ar
    42    21    14    1
    43    37    38    1
    44     9    10    1
@<TRIPOS>MOLECULE
*****
 38 44 0 0 0
SMALL
GASTEIGER

@<TRIPOS>ATOM
      1 C         138.3226  141.6745  164.6781 C.3     1  UNL1        0.0955
      2 C         139.3037  142.5755  165.3679 C.3     1  UNL1        0.0287
      3 C         140.1899  142.0315  166.4490 C.3     1  UNL1        0.0193
      4 C         140.0951  140.5865  166.8402 C.3     1  UNL1        0.0700
      5 C         139.1140  139.6856  166.1504 C.3     1  UNL1        0.0193
      6 C         138.2278  140.2296  165.0693 C.3     1  UNL1        0.0287
      7 C         139.5886  140.8390  166.2421 C.3     1  UNL1        0.1562
      8 O         138.7873  141.3309  165.2646 O.3     1  UNL1       -0.3571
      9 N         140.9813  140.0425  167.9213 N.3     1  UNL1       -0.2925
     10 H         140.4882  139.2519  168.3362 H       1  UNL1        0.1236
     11 C         142.3634  139.5644  167.5882 C.3     1  UNL1        0.1171
     12 C         142.8974  139.7251  166.1956 C.ar    1  UNL1        0.0997
     13 C         142.6272  138.6717  165.1625 C.ar    1  UNL1        0.0597
     14 C         143.1611  138.8325  163.7700 C.ar    1  UNL1        0.1943
     15 C         143.9653  140.0467  163.4106 C.ar    1  UNL1        0.2784
     16 N         144.2355  141.1000  164.4438 N.ar    1  UNL1       -0.1073
     17 N         143.7015  140.9392  165.8363 N.ar    1  UNL1       -0.1479
     18 O         144.4993  140.2075  162.0181 O.3     1  UNL1       -0.4531
     19 C         144.2290  139.1540  160.9850 C.3     1  UNL1        0.2543
     20 C         143.4249  137.9400  161.3444 C.3     1  UNL1        0.2528
     21 O         142.8909  137.7792  162.7369 O.3     1  UNL1       -0.4666
     22 C         137.4364  142.2186  163.5970 C.3     1  UNL1        0.0604
     23 O         140.3095  146.1554  162.0068 O.2     1  UNL1       -0.2670
     24 C         140.0636  145.1396  160.9308 C.ar    1  UNL1        0.2611
     25 C         140.6410  145.3429  159.5614 C.ar    1  UNL1        0.0623
     26 C         140.3951  144.3271  158.4855 C.ar    1  UNL1        0.0254
     27 C         139.5718  143.1081  158.7789 C.ar    1  UNL1        0.0972
     28 N         139.1687  141.9445  157.9106 N.ar    1  UNL1       -0.2400
     29 C         138.3299  140.7811  158.3500 C.ar    1  UNL1        0.1282
     30 C         137.8202  140.7139  159.7591 C.ar    1  UNL1        0.1588
     31 F         136.9814  139.5506  160.1985 F       1  UNL1       -0.2027
     32 C         138.1493  141.8100  160.7288 C.ar    1  UNL1        0.0500
     33 C         138.9944  142.9048  160.1482 C.ar    1  UNL1        0.0806
     34 N         139.2403  143.9206  161.2242 N.ar    1  UNL1       -0.2915
     35 C         138.5472  143.4535  162.4698 C.3     1  UNL1        0.1402
     36 C         137.8729  142.1491  162.1636 C.3     1  UNL1        0.1335
     37 O         137.1073  140.8592  162.1571 O.3     1  UNL1       -0.3806
     38 H         136.7238  140.7064  163.0348 H       1  UNL1        0.2108
@<TRIPOS>BOND
     1    23    24    2
     2    24    25   ar
     3    25    26   ar
     4    26    27   ar
     5    27    28   ar
     6    28    29   ar
     7    29    30   ar
     8    30    31    1
     9    30    32   ar
    10    32    33   ar
    11    33    34   ar
    12    34    35    1
    13    35    36    1
    14    36    37    1
    15    36    22    1
    16    22     1    1
    17     1     2    1
    18     2     3    1
    19     3     4    1
    20     4     9    1
    21     9    11    1
    22    11    12    1
    23    12    13   ar
    24    13    14   ar
    25    14    15   ar
    26    15    16   ar
    27    16    17   ar
    28    15    18    1
    29    18    19    1
    30    19    20    1
    31    20    21    1
    32     4     5    1
    33     5     6    1
    34     4     7    1
    35     7     8    1
    36    34    24   ar
    37     6     1    1
    38    33    27   ar
    39     8     1    1
    40    36    32    1
    41    17    12   ar
    42    21    14    1
    43    37    38    1
    44     9    10    1
@<TRIPOS>MOLECULE
*****
 38 44 0 0 0
SMALL
GASTEIGER

@<TRIPOS>ATOM
      1 C         139.9507  142.7567  165.1157 C.3     1  UNL1        0.0955
      2 C         140.6952  141.9587  166.1448 C.3     1  UNL1        0.0287
      3 C         140.1686  140.6249  166.5849 C.3     1  UNL1        0.0193
      4 C         138.8974  140.0891  165.9959 C.3     1  UNL1        0.0700
      5 C         138.1528  140.8870  164.9669 C.3     1  UNL1        0.0193
      6 C         138.6794  142.2208  164.5267 C.3     1  UNL1        0.0287
      7 C         139.1468  140.8250  165.7233 C.3     1  UNL1        0.1562
      8 O         139.6230  142.0310  165.3254 O.3     1  UNL1       -0.3571
      9 N         138.3707  138.7553  166.4360 N.3     1  UNL1       -0.2925
     10 H         137.3590  138.8523  166.5230 H       1  UNL1        0.1236
     11 C         138.6183  137.5372  165.5965 C.3     1  UNL1        0.1171
     12 C         139.3238  137.6650  164.2790 C.ar    1  UNL1        0.0997
     13 C         140.8227  137.6939  164.2305 C.ar    1  UNL1        0.0597
     14 C         141.5282  137.8218  162.9129 C.ar    1  UNL1        0.1943
     15 C         140.7347  137.9208  161.6438 C.ar    1  UNL1        0.2784
     16 N         139.2358  137.8919  161.6923 N.ar    1  UNL1       -0.1073
     17 N         138.5303  137.7640  163.0099 N.ar    1  UNL1       -0.1479
     18 O         141.4401  138.0486  160.3262 O.3     1  UNL1       -0.4531
     19 C         142.9391  138.0775  160.2778 C.3     1  UNL1        0.2543
     20 C         143.7325  137.9785  161.5469 C.3     1  UNL1        0.2528
     21 O         143.0271  137.8507  162.8645 O.3     1  UNL1       -0.4666
     22 C         140.4773  144.0904  164.6756 C.3     1  UNL1        0.0604
     23 O         144.2192  141.1510  162.7675 O.2     1  UNL1       -0.2670
     24 C         143.6486  142.1001  161.7558 C.ar    1  UNL1        0.2611
     25 C         144.1838  142.1135  160.3546 C.ar    1  UNL1        0.0623
     26 C         143.6132  143.0626  159.3428 C.ar    1  UNL1        0.0254
     27 C         142.5074  143.9983  159.7323 C.ar    1  UNL1        0.0972
     28 N         141.7569  145.0388  158.9419 N.ar    1  UNL1       -0.2400
     29 C         140.6594  145.9112  159.4749 C.ar    1  UNL1        0.1282
     30 C         140.2283  145.7841  160.9060 C.ar    1  UNL1        0.1588
     31 F         139.1307  146.6566  161.4389 F       1  UNL1       -0.2027
     32 C         140.8948  144.7846  161.8041 C.ar    1  UNL1        0.0500
     33 C         141.9722  143.9849  161.1335 C.ar    1  UNL1        0.0806
     34 N         142.5428  143.0358  162.1452 N.ar    1  UNL1       -0.2915
     35 C         141.8181  143.2490  163.4411 C.3     1  UNL1        0.1402
     36 C         140.7996  144.3298  163.2303 C.3     1  UNL1        0.1335
     37 O         139.7137  145.3605  163.3216 O.3     1  UNL1       -0.3806
     38 H         139.3517  145.3700  164.2215 H       1  UNL1        0.2108
@<TRIPOS>BOND
     1    23    24    2
     2    24    25   ar
     3    25    26   ar
     4    26    27   ar
     5    27    28   ar
     6    28    29   ar
     7    29    30   ar
     8    30    31    1
     9    30    32   ar
    10    32    33   ar
    11    33    34   ar
    12    34    35    1
    13    35    36    1
    14    36    37    1
    15    36    22    1
    16    22     1    1
    17     1     2    1
    18     2     3    1
    19     3     4    1
    20     4     9    1
    21     9    11    1
    22    11    12    1
    23    12    13   ar
    24    13    14   ar
    25    14    15   ar
    26    15    16   ar
    27    16    17   ar
    28    15    18    1
    29    18    19    1
    30    19    20    1
    31    20    21    1
    32     4     5    1
    33     5     6    1
    34     4     7    1
    35     7     8    1
    36    34    24   ar
    37     6     1    1
    38    33    27   ar
    39     8     1    1
    40    36    32    1
    41    17    12   ar
    42    21    14    1
    43    37    38    1
    44     9    10    1
@<TRIPOS>MOLECULE
*****
 38 44 0 0 0
SMALL
GASTEIGER

@<TRIPOS>ATOM
      1 C         144.3498  140.7116  162.3801 C.3     1  UNL1        0.0955
      2 C         143.8428  140.0166  161.1512 C.3     1  UNL1        0.0287
      3 C         143.7862  140.7504  159.8441 C.3     1  UNL1        0.0193
      4 C         144.2364  142.1791  159.7659 C.3     1  UNL1        0.0700
      5 C         144.7433  142.8740  160.9947 C.3     1  UNL1        0.0193
      6 C         144.8001  142.1403  162.3019 C.3     1  UNL1        0.0287
      7 C         144.2861  141.8183  160.5045 C.3     1  UNL1        0.1562
      8 O         144.3373  141.1548  161.6863 O.3     1  UNL1       -0.3571
      9 N         144.1797  142.9128  158.4588 N.3     1  UNL1       -0.2925
     10 H         144.3095  142.2169  157.7246 H       1  UNL1        0.1236
     11 C         142.9580  143.7034  158.0951 C.3     1  UNL1        0.1171
     12 C         141.7194  143.5987  158.9347 C.ar    1  UNL1        0.0997
     13 C         141.5918  144.4127  160.1881 C.ar    1  UNL1        0.0597
     14 C         140.3532  144.3079  161.0276 C.ar    1  UNL1        0.1943
     15 C         139.2421  143.3892  160.6137 C.ar    1  UNL1        0.2784
     16 N         139.3696  142.5752  159.3602 N.ar    1  UNL1       -0.1073
     17 N         140.6083  142.6800  158.5207 N.ar    1  UNL1       -0.1479
     18 O         138.0034  143.2844  161.4532 O.3     1  UNL1       -0.4531
     19 C         137.8759  144.0984  162.7067 C.3     1  UNL1        0.2543
     20 C         138.9870  145.0171  163.1205 C.3     1  UNL1        0.2528
     21 O         140.2257  145.1219  162.2810 O.3     1  UNL1       -0.4666
     22 C         144.4065  139.9778  163.6871 C.3     1  UNL1        0.0604
     23 O         140.3229  136.9735  162.9252 O.2     1  UNL1       -0.2670
     24 C         140.1790  137.8613  164.1257 C.ar    1  UNL1        0.2611
     25 C         138.9311  137.8037  164.9559 C.ar    1  UNL1        0.0623
     26 C         138.7873  138.6915  166.1564 C.ar    1  UNL1        0.0254
     27 C         139.8914  139.6368  166.5267 C.ar    1  UNL1        0.0972
     28 N         140.0201  140.6261  167.6559 N.ar    1  UNL1       -0.2400
     29 C         141.2022  141.5162  167.9016 C.ar    1  UNL1        0.1282
     30 C         142.3854  141.4628  166.9812 C.ar    1  UNL1        0.1588
     31 F         143.5675  142.3529  167.2269 F       1  UNL1       -0.2027
     32 C         142.3865  140.5194  165.8150 C.ar    1  UNL1        0.0500
     33 C         141.1393  139.6944  165.6965 C.ar    1  UNL1        0.0806
     34 N         141.2832  138.8066  164.4960 N.ar    1  UNL1       -0.2915
     35 C         142.6192  139.0830  163.8726 C.3     1  UNL1        0.1402
     36 C         143.3011  140.1415  164.6877 C.3     1  UNL1        0.1335
     37 O         144.2140  141.1659  165.2937 O.3     1  UNL1       -0.3806
     38 H         145.0300  141.2207  164.7721 H       1  UNL1        0.2108
@<TRIPOS>BOND
     1    23    24    2
     2    24    25   ar
     3    25    26   ar
     4    26    27   ar
     5    27    28   ar
     6    28    29   ar
     7    29    30   ar
     8    30    31    1
     9    30    32   ar
    10    32    33   ar
    11    33    34   ar
    12    34    35    1
    13    35    36    1
    14    36    37    1
    15    36    22    1
    16    22     1    1
    17     1     2    1
    18     2     3    1
    19     3     4    1
    20     4     9    1
    21     9    11    1
    22    11    12    1
    23    12    13   ar
    24    13    14   ar
    25    14    15   ar
    26    15    16   ar
    27    16    17   ar
    28    15    18    1
    29    18    19    1
    30    19    20    1
    31    20    21    1
    32     4     5    1
    33     5     6    1
    34     4     7    1
    35     7     8    1
    36    34    24   ar
    37     6     1    1
    38    33    27   ar
    39     8     1    1
    40    36    32    1
    41    17    12   ar
    42    21    14    1
    43    37    38    1
    44     9    10    1
