@<TRIPOS>MOLECULE
*****
 40 43 0 0 0
SMALL
GASTEIGER

@<TRIPOS>ATOM
      1 N         139.1919  139.5231  161.0245 N.3     1  UNL1       -0.2711
      2 C         137.8018  139.9955  160.7173 C.3     1  UNL1        0.0933
      3 C         138.1134  139.9584  159.2505 C.3     1  UNL1        0.1035
      4 C         139.5035  139.4860  159.5577 C.3     1  UNL1        0.0933
      5 C         141.4800  138.5995  164.7878 C.3     1  UNL1        0.1141
      6 O         142.3829  137.5439  165.3537 O.3     1  UNL1       -0.3821
      7 C         140.6693  139.8580  164.6927 C.3     1  UNL1        0.0331
      8 C         139.9066  140.1658  163.4383 C.3     1  UNL1        0.0187
      9 C         139.9547  139.2152  162.2790 C.3     1  UNL1        0.0578
     10 C         140.7653  137.9567  162.3740 C.3     1  UNL1        0.0187
     11 C         141.5280  137.6489  163.6284 C.3     1  UNL1        0.0331
     12 H         142.6449  137.7914  166.2543 H       1  UNL1        0.2107
     13 C         141.4581  140.3600  168.2469 C.ar    1  UNL1        0.2579
     14 N         142.8508  139.8040  168.2134 N.ar    1  UNL1       -0.2040
     15 C         143.0285  139.0769  166.9136 C.ar    1  UNL1        0.1071
     16 C         141.7456  139.1835  166.1436 C.ar    1  UNL1        0.0547
     17 S         140.7750  139.9765  166.9678 S.2     1  UNL1       -0.0307
     18 O         140.8544  141.1592  169.3636 O.3     1  UNL1       -0.4595
     19 C         142.8118  142.7293  170.0367 C.3     1  UNL1        0.0473
     20 C         141.3714  142.5343  169.6664 C.3     1  UNL1        0.1683
     21 C         140.4480  143.7145  169.5989 C.3     1  UNL1        0.0473
     22 N         137.3508  140.2663  157.9961 N.am    1  UNL1       -0.3018
     23 C         137.5587  141.5755  157.2941 C.2     1  UNL1        0.2426
     24 O         138.5293  142.5769  157.8466 O.2     1  UNL1       -0.2733
     25 H         136.7137  139.6091  157.6335 H       1  UNL1        0.1495
     26 C         136.7961  141.8834  156.0397 C.3     1  UNL1        0.1759
     27 N         135.2962  141.8694  156.0514 N.am    1  UNL1       -0.2931
     28 C         134.5571  140.5716  155.9121 C.2     1  UNL1        0.2462
     29 O         135.3179  139.2877  155.7611 O.2     1  UNL1       -0.2701
     30 H         134.7969  142.7121  156.1505 H       1  UNL1        0.1502
     31 C         133.0572  140.5576  155.9238 C.ar    1  UNL1        0.0533
     32 C         132.2916  141.6201  155.1924 C.ar    1  UNL1        0.0045
     33 C         130.7917  141.6061  155.2041 C.ar    1  UNL1        0.0001
     34 C         130.0574  140.5297  155.9471 C.ar    1  UNL1        0.0039
     35 C         130.8231  139.4672  156.6785 C.ar    1  UNL1        0.0716
     36 C         132.3229  139.4811  156.6668 C.ar    1  UNL1        0.0084
     37 C         130.0889  138.3908  157.4216 C.3     1  UNL1        0.4186
     38 F         129.3546  137.3143  158.1647 F       1  UNL1       -0.1659
     39 F         129.8673  139.3330  158.5675 F       1  UNL1       -0.1659
     40 F         130.3104  137.4486  156.2756 F       1  UNL1       -0.1659
@<TRIPOS>BOND
     1    19    20    1
     2    20    21    1
     3    20    18    1
     4    18    13    1
     5    13    14   ar
     6    14    15   ar
     7    15    16   ar
     8    16     5    1
     9     5     6    1
    10     5     7    1
    11     7     8    1
    12     8     9    1
    13     9     1    1
    14     1     2    1
    15     2     3    1
    16     3    22    1
    17    22    23   am
    18    23    24    2
    19    23    26    1
    20    26    27    1
    21    27    28   am
    22    28    29    2
    23    28    31    1
    24    31    32   ar
    25    32    33   ar
    26    33    34   ar
    27    34    35   ar
    28    35    37    1
    29    37    38    1
    30    37    39    1
    31    37    40    1
    32    35    36   ar
    33     3     4    1
    34     9    10    1
    35    10    11    1
    36    16    17   ar
    37    17    13   ar
    38    11     5    1
    39     4     1    1
    40    36    31   ar
    41     6    12    1
    42    22    25    1
    43    27    30    1
@<TRIPOS>MOLECULE
*****
 40 43 0 0 0
SMALL
GASTEIGER

@<TRIPOS>ATOM
      1 N         140.1892  141.1276  160.9770 N.3     1  UNL1       -0.2711
      2 C         140.4701  141.4942  159.5499 C.3     1  UNL1        0.0933
      3 C         139.0049  141.7176  159.3189 C.3     1  UNL1        0.1035
      4 C         138.7240  141.3509  160.7460 C.3     1  UNL1        0.0933
      5 C         142.7011  139.8759  164.4945 C.3     1  UNL1        0.1141
      6 O         143.9838  139.1577  164.7930 O.3     1  UNL1       -0.3821
      7 C         141.4186  140.6214  164.7163 C.3     1  UNL1        0.0331
      8 C         140.5813  141.0386  163.5438 C.3     1  UNL1        0.0187
      9 C         141.0266  140.7103  162.1495 C.3     1  UNL1        0.0578
     10 C         142.3091  139.9648  161.9278 C.3     1  UNL1        0.0187
     11 C         143.1464  139.5475  163.1003 C.3     1  UNL1        0.0331
     12 H         144.1225  139.1289  165.7526 H       1  UNL1        0.2107
     13 C         142.4790  140.7910  168.2600 C.ar    1  UNL1        0.2579
     14 N         142.9248  139.3608  168.3351 N.ar    1  UNL1       -0.2040
     15 C         143.0623  138.8439  166.9338 C.ar    1  UNL1        0.1071
     16 C         142.7014  139.9547  165.9925 C.ar    1  UNL1        0.0547
     17 S         142.3409  141.1581  166.8122 S.2     1  UNL1       -0.0307
     18 O         142.2172  141.6955  169.4277 O.3     1  UNL1       -0.4595
     19 C         139.6789  141.2583  169.7679 C.3     1  UNL1        0.0473
     20 C         140.8321  142.2134  169.6795 C.3     1  UNL1        0.1683
     21 C         140.6003  143.6863  169.8428 C.3     1  UNL1        0.0473
     22 N         138.1676  142.1349  158.1464 N.am    1  UNL1       -0.3018
     23 C         137.7209  141.1137  157.1425 C.2     1  UNL1        0.2426
     24 O         138.1116  139.6753  157.3111 O.2     1  UNL1       -0.2733
     25 H         137.9111  143.0789  158.0358 H       1  UNL1        0.1495
     26 C         136.8835  141.5309  155.9700 C.3     1  UNL1        0.1759
     27 N         135.3890  141.5691  156.0916 N.am    1  UNL1       -0.2931
     28 C         134.5838  140.3294  155.8369 C.2     1  UNL1        0.2462
     29 O         135.2733  139.0514  155.4607 O.2     1  UNL1       -0.2701
     30 H         134.9365  142.4079  156.3385 H       1  UNL1        0.1502
     31 C         133.0893  140.3676  155.9585 C.ar    1  UNL1        0.0533
     32 C         132.3087  141.4515  155.2760 C.ar    1  UNL1        0.0045
     33 C         130.8141  141.4897  155.3975 C.ar    1  UNL1        0.0001
     34 C         130.1001  140.4439  156.2016 C.ar    1  UNL1        0.0039
     35 C         130.8806  139.3600  156.8841 C.ar    1  UNL1        0.0716
     36 C         132.3752  139.3218  156.7625 C.ar    1  UNL1        0.0084
     37 C         130.1666  138.3142  157.6881 C.3     1  UNL1        0.4186
     38 F         129.4526  137.2684  158.4922 F       1  UNL1       -0.1659
     39 F         129.0235  138.3485  156.7175 F       1  UNL1       -0.1659
     40 F         131.3097  138.2800  158.6587 F       1  UNL1       -0.1659
@<TRIPOS>BOND
     1    19    20    1
     2    20    21    1
     3    20    18    1
     4    18    13    1
     5    13    14   ar
     6    14    15   ar
     7    15    16   ar
     8    16     5    1
     9     5     6    1
    10     5     7    1
    11     7     8    1
    12     8     9    1
    13     9     1    1
    14     1     2    1
    15     2     3    1
    16     3    22    1
    17    22    23   am
    18    23    24    2
    19    23    26    1
    20    26    27    1
    21    27    28   am
    22    28    29    2
    23    28    31    1
    24    31    32   ar
    25    32    33   ar
    26    33    34   ar
    27    34    35   ar
    28    35    37    1
    29    37    38    1
    30    37    39    1
    31    37    40    1
    32    35    36   ar
    33     3     4    1
    34     9    10    1
    35    10    11    1
    36    16    17   ar
    37    17    13   ar
    38    11     5    1
    39     4     1    1
    40    36    31   ar
    41     6    12    1
    42    22    25    1
    43    27    30    1
@<TRIPOS>MOLECULE
*****
 40 43 0 0 0
SMALL
GASTEIGER

@<TRIPOS>ATOM
      1 N         144.4586  142.5739  158.6228 N.3     1  UNL1       -0.2711
      2 C         144.4991  142.1727  160.0676 C.3     1  UNL1        0.0933
      3 C         143.2690  142.9902  160.3291 C.3     1  UNL1        0.1035
      4 C         143.2285  143.3914  158.8843 C.3     1  UNL1        0.0933
      5 C         146.9823  141.6909  155.0032 C.3     1  UNL1        0.1141
      6 O         146.9052  140.9486  153.7021 O.3     1  UNL1       -0.3821
      7 C         147.5337  142.5343  156.1143 C.3     1  UNL1        0.0331
      8 C         146.6925  142.8287  157.3208 C.3     1  UNL1        0.0187
      9 C         145.2999  142.2795  157.4162 C.3     1  UNL1        0.0578
     10 C         144.7485  141.4361  156.3052 C.3     1  UNL1        0.0187
     11 C         145.5897  141.1417  155.0987 C.3     1  UNL1        0.0331
     12 H         147.7425  141.0487  153.2226 H       1  UNL1        0.2107
     13 C         150.7580  142.1863  154.2520 C.ar    1  UNL1        0.2579
     14 N         150.1418  142.6747  152.9746 N.ar    1  UNL1       -0.2040
     15 C         148.6524  142.5486  153.1006 C.ar    1  UNL1        0.1071
     16 C         148.3481  141.9822  154.4558 C.ar    1  UNL1        0.0547
     17 S         149.6495  141.7582  155.1674 S.2     1  UNL1       -0.0307
     18 O         152.2252  142.1348  154.5599 O.3     1  UNL1       -0.4595
     19 C         154.5051  141.9910  153.3226 C.3     1  UNL1        0.0473
     20 C         153.1598  141.4080  153.6389 C.3     1  UNL1        0.1683
     21 C         152.7490  140.0982  153.0342 C.3     1  UNL1        0.0473
     22 N         142.4278  143.2846  161.5356 N.am    1  UNL1       -0.3018
     23 C         142.9299  144.2284  162.5879 C.2     1  UNL1        0.2426
     24 O         144.2732  144.8778  162.4335 O.2     1  UNL1       -0.2733
     25 H         141.5461  142.8584  161.6368 H       1  UNL1        0.1495
     26 C         142.0887  144.5228  163.7943 C.3     1  UNL1        0.1759
     27 N         141.8207  143.4453  164.8028 N.am    1  UNL1       -0.2931
     28 C         140.4656  143.3305  165.4358 C.2     1  UNL1        0.2462
     29 O         139.3785  144.2934  165.0602 O.2     1  UNL1       -0.2701
     30 H         142.5343  142.8133  165.0493 H       1  UNL1        0.1502
     31 C         140.1977  142.2530  166.4442 C.ar    1  UNL1        0.0533
     32 C         140.5545  142.4687  167.8851 C.ar    1  UNL1        0.0045
     33 C         140.2866  141.3911  168.8936 C.ar    1  UNL1        0.0001
     34 C         139.6618  140.0978  168.4612 C.ar    1  UNL1        0.0039
     35 C         139.3049  139.8821  167.0203 C.ar    1  UNL1        0.0716
     36 C         139.5728  140.9596  166.0119 C.ar    1  UNL1        0.0084
     37 C         138.6801  138.5888  166.5880 C.3     1  UNL1        0.4186
     38 F         138.0553  137.2954  166.1555 F       1  UNL1       -0.1659
     39 F         139.8772  138.2966  165.7325 F       1  UNL1       -0.1659
     40 F         137.4832  138.8811  167.4434 F       1  UNL1       -0.1659
@<TRIPOS>BOND
     1    19    20    1
     2    20    21    1
     3    20    18    1
     4    18    13    1
     5    13    14   ar
     6    14    15   ar
     7    15    16   ar
     8    16     5    1
     9     5     6    1
    10     5     7    1
    11     7     8    1
    12     8     9    1
    13     9     1    1
    14     1     2    1
    15     2     3    1
    16     3    22    1
    17    22    23   am
    18    23    24    2
    19    23    26    1
    20    26    27    1
    21    27    28   am
    22    28    29    2
    23    28    31    1
    24    31    32   ar
    25    32    33   ar
    26    33    34   ar
    27    34    35   ar
    28    35    37    1
    29    37    38    1
    30    37    39    1
    31    37    40    1
    32    35    36   ar
    33     3     4    1
    34     9    10    1
    35    10    11    1
    36    16    17   ar
    37    17    13   ar
    38    11     5    1
    39     4     1    1
    40    36    31   ar
    41     6    12    1
    42    22    25    1
    43    27    30    1
@<TRIPOS>MOLECULE
*****
 40 43 0 0 0
SMALL
GASTEIGER

@<TRIPOS>ATOM
      1 N         141.9844  139.4474  159.5869 N.3     1  UNL1       -0.2711
      2 C         142.6552  139.3727  160.9265 C.3     1  UNL1        0.0933
      3 C         142.4079  140.8379  161.1319 C.3     1  UNL1        0.1035
      4 C         141.7372  140.9125  159.7923 C.3     1  UNL1        0.0933
      5 C         141.0860  136.4977  156.3094 C.3     1  UNL1        0.1141
      6 O         139.9548  136.0812  155.4167 O.3     1  UNL1       -0.3821
      7 C         142.4507  136.5358  156.9307 C.3     1  UNL1        0.0331
      8 C         142.7501  137.5190  158.0232 C.3     1  UNL1        0.0187
      9 C         141.6849  138.4641  158.4943 C.3     1  UNL1        0.0578
     10 C         140.3202  138.4260  157.8730 C.3     1  UNL1        0.0187
     11 C         140.0208  137.4428  156.7805 C.3     1  UNL1        0.0331
     12 H         140.2488  135.3615  154.8366 H       1  UNL1        0.2107
     13 C         143.0059  133.4033  154.9660 C.ar    1  UNL1        0.2579
     14 N         142.5799  134.0584  153.6857 N.ar    1  UNL1       -0.2040
     15 C         141.8088  135.2973  154.0330 C.ar    1  UNL1        0.1071
     16 C         141.7583  135.4079  155.5282 C.ar    1  UNL1        0.0547
     17 S         142.4982  134.2373  156.1048 S.2     1  UNL1       -0.0307
     18 O         143.8002  132.1366  155.0866 O.3     1  UNL1       -0.4595
     19 C         143.1082  130.4757  156.9607 C.3     1  UNL1        0.0473
     20 C         144.0402  131.5274  156.4361 C.3     1  UNL1        0.1683
     21 C         145.2122  131.9699  157.2611 C.3     1  UNL1        0.0473
     22 N         142.7074  141.8211  162.2244 N.am    1  UNL1       -0.3018
     23 C         144.0885  141.9001  162.8045 C.2     1  UNL1        0.2426
     24 O         145.1700  140.9959  162.2921 O.2     1  UNL1       -0.2733
     25 H         141.9975  142.4146  162.5607 H       1  UNL1        0.1495
     26 C         144.3879  142.8833  163.8970 C.3     1  UNL1        0.1759
     27 N         144.1102  142.5237  165.3265 N.am    1  UNL1       -0.2931
     28 C         142.6988  142.5035  165.8341 C.2     1  UNL1        0.2462
     29 O         141.5652  142.8429  164.9122 O.2     1  UNL1       -0.2701
     30 H         144.8542  142.3010  165.9315 H       1  UNL1        0.1502
     31 C         142.4210  142.1439  167.2636 C.ar    1  UNL1        0.0533
     32 C         143.4953  142.3002  168.2987 C.ar    1  UNL1        0.0045
     33 C         143.2174  141.9406  169.7282 C.ar    1  UNL1        0.0001
     34 C         141.8653  141.4246  170.1226 C.ar    1  UNL1        0.0039
     35 C         140.7910  141.2683  169.0875 C.ar    1  UNL1        0.0716
     36 C         141.0688  141.6279  167.6580 C.ar    1  UNL1        0.0084
     37 C         139.4389  140.7523  169.4819 C.3     1  UNL1        0.4186
     38 F         138.0868  140.2363  169.8763 F       1  UNL1       -0.1659
     39 F         139.2373  141.9519  170.3597 F       1  UNL1       -0.1659
     40 F         139.6406  139.5528  168.6041 F       1  UNL1       -0.1659
@<TRIPOS>BOND
     1    19    20    1
     2    20    21    1
     3    20    18    1
     4    18    13    1
     5    13    14   ar
     6    14    15   ar
     7    15    16   ar
     8    16     5    1
     9     5     6    1
    10     5     7    1
    11     7     8    1
    12     8     9    1
    13     9     1    1
    14     1     2    1
    15     2     3    1
    16     3    22    1
    17    22    23   am
    18    23    24    2
    19    23    26    1
    20    26    27    1
    21    27    28   am
    22    28    29    2
    23    28    31    1
    24    31    32   ar
    25    32    33   ar
    26    33    34   ar
    27    34    35   ar
    28    35    37    1
    29    37    38    1
    30    37    39    1
    31    37    40    1
    32    35    36   ar
    33     3     4    1
    34     9    10    1
    35    10    11    1
    36    16    17   ar
    37    17    13   ar
    38    11     5    1
    39     4     1    1
    40    36    31   ar
    41     6    12    1
    42    22    25    1
    43    27    30    1
@<TRIPOS>MOLECULE
*****
 40 43 0 0 0
SMALL
GASTEIGER

@<TRIPOS>ATOM
      1 N         141.5902  138.9505  160.6750 N.3     1  UNL1       -0.2711
      2 C         141.2671  139.1518  159.2241 C.3     1  UNL1        0.0933
      3 C         142.3309  138.1626  158.8500 C.3     1  UNL1        0.1035
      4 C         142.6540  137.9614  160.3008 C.3     1  UNL1        0.0933
      5 C         140.0192  140.6217  164.5465 C.3     1  UNL1        0.1141
      6 O         139.6804  141.9408  165.1752 O.3     1  UNL1       -0.3821
      7 C         140.1970  139.1410  164.3861 C.3     1  UNL1        0.0331
      8 C         140.7206  138.5840  163.0956 C.3     1  UNL1        0.0187
      9 C         141.0665  139.5077  161.9655 C.3     1  UNL1        0.0578
     10 C         140.8887  140.9884  162.1259 C.3     1  UNL1        0.0187
     11 C         140.3650  141.5454  163.4164 C.3     1  UNL1        0.0331
     12 H         139.3568  141.7951  166.0779 H       1  UNL1        0.2107
     13 C         139.3945  139.8298  168.2946 C.ar    1  UNL1        0.2579
     14 N         138.2898  139.0498  167.6455 N.ar    1  UNL1       -0.2040
     15 C         138.3894  139.2515  166.1625 C.ar    1  UNL1        0.1071
     16 C         139.5556  140.1562  165.8950 C.ar    1  UNL1        0.0547
     17 S         140.1768  140.5136  167.2127 S.2     1  UNL1       -0.0307
     18 O         139.6687  139.9117  169.7671 O.3     1  UNL1       -0.4595
     19 C         142.1535  139.1796  169.9658 C.3     1  UNL1        0.0473
     20 C         141.0631  140.1676  170.2572 C.3     1  UNL1        0.1683
     21 C         141.3670  141.4113  171.0386 C.3     1  UNL1        0.0473
     22 N         142.8546  137.6055  157.5595 N.am    1  UNL1       -0.3018
     23 C         143.7423  138.4423  156.6867 C.2     1  UNL1        0.2426
     24 O         144.1063  139.8362  157.1044 O.2     1  UNL1       -0.2733
     25 H         142.6157  136.6906  157.2854 H       1  UNL1        0.1495
     26 C         144.2660  137.8852  155.3962 C.3     1  UNL1        0.1759
     27 N         144.2392  136.4054  155.1525 N.am    1  UNL1       -0.2931
     28 C         142.9387  135.7166  154.8618 C.2     1  UNL1        0.2462
     29 O         141.6651  136.5077  154.8149 O.2     1  UNL1       -0.2701
     30 H         145.0751  135.8862  155.1833 H       1  UNL1        0.1502
     31 C         142.9119  134.2368  154.6181 C.ar    1  UNL1        0.0533
     32 C         142.1954  133.6868  153.4206 C.ar    1  UNL1        0.0045
     33 C         142.1686  132.2069  153.1768 C.ar    1  UNL1        0.0001
     34 C         142.8583  131.2771  154.1306 C.ar    1  UNL1        0.0039
     35 C         143.5748  131.8271  155.3282 C.ar    1  UNL1        0.0716
     36 C         143.6016  133.3069  155.5719 C.ar    1  UNL1        0.0084
     37 C         144.2645  130.8974  156.2820 C.3     1  UNL1        0.4186
     38 F         144.9542  129.9675  157.2358 F       1  UNL1       -0.1659
     39 F         143.0700  129.9902  156.2613 F       1  UNL1       -0.1659
     40 F         145.4589  131.8045  156.3026 F       1  UNL1       -0.1659
@<TRIPOS>BOND
     1    19    20    1
     2    20    21    1
     3    20    18    1
     4    18    13    1
     5    13    14   ar
     6    14    15   ar
     7    15    16   ar
     8    16     5    1
     9     5     6    1
    10     5     7    1
    11     7     8    1
    12     8     9    1
    13     9     1    1
    14     1     2    1
    15     2     3    1
    16     3    22    1
    17    22    23   am
    18    23    24    2
    19    23    26    1
    20    26    27    1
    21    27    28   am
    22    28    29    2
    23    28    31    1
    24    31    32   ar
    25    32    33   ar
    26    33    34   ar
    27    34    35   ar
    28    35    37    1
    29    37    38    1
    30    37    39    1
    31    37    40    1
    32    35    36   ar
    33     3     4    1
    34     9    10    1
    35    10    11    1
    36    16    17   ar
    37    17    13   ar
    38    11     5    1
    39     4     1    1
    40    36    31   ar
    41     6    12    1
    42    22    25    1
    43    27    30    1
@<TRIPOS>MOLECULE
*****
 40 43 0 0 0
SMALL
GASTEIGER

@<TRIPOS>ATOM
      1 N         143.1663  140.1199  159.2703 N.3     1  UNL1       -0.2711
      2 C         143.8731  141.4100  159.5637 C.3     1  UNL1        0.0933
      3 C         143.1933  141.4788  160.8990 C.3     1  UNL1        0.1035
      4 C         142.4865  140.1887  160.6057 C.3     1  UNL1        0.0933
      5 C         143.1089  137.2371  155.8155 C.3     1  UNL1        0.1141
      6 O         143.5008  137.1690  154.3692 O.3     1  UNL1       -0.3821
      7 C         142.5708  136.8177  157.1513 C.3     1  UNL1        0.0331
      8 C         142.5899  137.7786  158.3029 C.3     1  UNL1        0.0187
      9 C         143.1472  139.1590  158.1186 C.3     1  UNL1        0.0578
     10 C         143.6853  139.5785  156.7828 C.3     1  UNL1        0.0187
     11 C         143.6662  138.6175  155.6313 C.3     1  UNL1        0.0331
     12 H         143.2824  136.2924  154.0160 H       1  UNL1        0.2107
     13 C         142.1703  133.4721  155.7184 C.ar    1  UNL1        0.2579
     14 N         141.9089  133.8728  154.2968 N.ar    1  UNL1       -0.2040
     15 C         142.2287  135.3319  154.1601 C.ar    1  UNL1        0.1071
     16 C         142.6878  135.8331  155.4973 C.ar    1  UNL1        0.0547
     17 S         142.6517  134.6836  156.4604 S.2     1  UNL1       -0.0307
     18 O         141.9833  132.1007  156.2966 O.3     1  UNL1       -0.4595
     19 C         142.9710  129.9982  155.1332 C.3     1  UNL1        0.0473
     20 C         141.8152  130.9198  155.3870 C.3     1  UNL1        0.1683
     21 C         140.4912  130.6606  154.7314 C.3     1  UNL1        0.0473
     22 N         143.2124  142.4397  162.0507 N.am    1  UNL1       -0.3018
     23 C         144.4168  142.5191  162.9413 C.2     1  UNL1        0.2426
     24 O         145.6021  141.6377  162.6803 O.2     1  UNL1       -0.2733
     25 H         142.4345  143.0182  162.2220 H       1  UNL1        0.1495
     26 C         144.4359  143.4800  164.0930 C.3     1  UNL1        0.1759
     27 N         144.0952  143.0028  165.4736 N.am    1  UNL1       -0.2931
     28 C         142.6950  142.5699  165.7933 C.2     1  UNL1        0.2462
     29 O         141.6356  142.6144  164.7324 O.2     1  UNL1       -0.2701
     30 H         144.7906  142.9736  166.1699 H       1  UNL1        0.1502
     31 C         142.3543  142.0927  167.1739 C.ar    1  UNL1        0.0533
     32 C         143.3476  142.2473  168.2873 C.ar    1  UNL1        0.0045
     33 C         143.0068  141.7700  169.6680 C.ar    1  UNL1        0.0001
     34 C         141.6729  141.1382  169.9352 C.ar    1  UNL1        0.0039
     35 C         140.6797  140.9836  168.8218 C.ar    1  UNL1        0.0716
     36 C         141.0204  141.4608  167.4412 C.ar    1  UNL1        0.0084
     37 C         139.3458  140.3517  169.0891 C.3     1  UNL1        0.4186
     38 F         138.0119  139.7198  169.3563 F       1  UNL1       -0.1659
     39 F         139.4815  139.5360  167.8375 F       1  UNL1       -0.1659
     40 F         139.2102  141.1674  170.3405 F       1  UNL1       -0.1659
@<TRIPOS>BOND
     1    19    20    1
     2    20    21    1
     3    20    18    1
     4    18    13    1
     5    13    14   ar
     6    14    15   ar
     7    15    16   ar
     8    16     5    1
     9     5     6    1
    10     5     7    1
    11     7     8    1
    12     8     9    1
    13     9     1    1
    14     1     2    1
    15     2     3    1
    16     3    22    1
    17    22    23   am
    18    23    24    2
    19    23    26    1
    20    26    27    1
    21    27    28   am
    22    28    29    2
    23    28    31    1
    24    31    32   ar
    25    32    33   ar
    26    33    34   ar
    27    34    35   ar
    28    35    37    1
    29    37    38    1
    30    37    39    1
    31    37    40    1
    32    35    36   ar
    33     3     4    1
    34     9    10    1
    35    10    11    1
    36    16    17   ar
    37    17    13   ar
    38    11     5    1
    39     4     1    1
    40    36    31   ar
    41     6    12    1
    42    22    25    1
    43    27    30    1
@<TRIPOS>MOLECULE
*****
 40 43 0 0 0
SMALL
GASTEIGER

@<TRIPOS>ATOM
      1 N         140.9084  139.3763  160.9666 N.3     1  UNL1       -0.2711
      2 C         141.3293  138.0025  160.5359 C.3     1  UNL1        0.0933
      3 C         141.4363  138.4798  159.1179 C.3     1  UNL1        0.1035
      4 C         141.0154  139.8536  159.5486 C.3     1  UNL1        0.0933
      5 C         139.7885  141.2782  164.8881 C.3     1  UNL1        0.1141
      6 O         139.2044  142.5525  165.4218 O.3     1  UNL1       -0.3821
      7 C         140.3769  139.8987  164.8646 C.3     1  UNL1        0.0331
      8 C         140.7502  139.2647  163.5575 C.3     1  UNL1        0.0187
      9 C         140.5351  140.0103  162.2738 C.3     1  UNL1        0.0578
     10 C         139.9467  141.3899  162.2973 C.3     1  UNL1        0.0187
     11 C         139.5734  142.0238  163.6045 C.3     1  UNL1        0.0331
     12 H         139.1488  142.5026  166.3889 H       1  UNL1        0.2107
     13 C         140.2594  141.1044  168.7370 C.ar    1  UNL1        0.2579
     14 N         139.3795  139.9133  168.4986 N.ar    1  UNL1       -0.2040
     15 C         139.0960  139.8335  167.0278 C.ar    1  UNL1        0.1071
     16 C         139.8008  140.9752  166.3572 C.ar    1  UNL1        0.0547
     17 S         140.5198  141.7607  167.4136 S.2     1  UNL1       -0.0307
     18 O         140.7866  141.5594  170.0656 O.3     1  UNL1       -0.4595
     19 C         142.8247  143.1151  170.4843 C.3     1  UNL1        0.0473
     20 C         141.3603  142.9375  170.2128 C.3     1  UNL1        0.1683
     21 C         140.4696  144.1380  170.0885 C.3     1  UNL1        0.0473
     22 N         141.8096  137.8459  157.8107 N.am    1  UNL1       -0.3018
     23 C         140.7380  137.3856  156.8673 C.2     1  UNL1        0.2426
     24 O         139.2932  137.5593  157.2311 O.2     1  UNL1       -0.2733
     25 H         142.7579  137.7319  157.5720 H       1  UNL1        0.1495
     26 C         141.1113  136.7516  155.5601 C.3     1  UNL1        0.1759
     27 N         141.2081  135.2588  155.4512 N.am    1  UNL1       -0.2931
     28 C         142.2610  134.5173  156.2205 C.2     1  UNL1        0.2462
     29 O         143.2170  135.2688  157.0987 O.2     1  UNL1       -0.2701
     30 H         140.5806  134.7656  154.8748 H       1  UNL1        0.1502
     31 C         142.3578  133.0244  156.1116 C.ar    1  UNL1        0.0533
     32 C         141.5458  132.2932  155.0839 C.ar    1  UNL1        0.0045
     33 C         141.6427  130.8002  154.9750 C.ar    1  UNL1        0.0001
     34 C         142.5514  130.0386  155.8937 C.ar    1  UNL1        0.0039
     35 C         143.3634  130.7699  156.9214 C.ar    1  UNL1        0.0716
     36 C         143.2666  132.2627  157.0303 C.ar    1  UNL1        0.0084
     37 C         144.2721  130.0082  157.8400 C.3     1  UNL1        0.4186
     38 F         145.1809  129.2465  158.7588 F       1  UNL1       -0.1659
     39 F         143.6337  128.7223  157.4054 F       1  UNL1       -0.1659
     40 F         144.9105  131.2941  158.2746 F       1  UNL1       -0.1659
@<TRIPOS>BOND
     1    19    20    1
     2    20    21    1
     3    20    18    1
     4    18    13    1
     5    13    14   ar
     6    14    15   ar
     7    15    16   ar
     8    16     5    1
     9     5     6    1
    10     5     7    1
    11     7     8    1
    12     8     9    1
    13     9     1    1
    14     1     2    1
    15     2     3    1
    16     3    22    1
    17    22    23   am
    18    23    24    2
    19    23    26    1
    20    26    27    1
    21    27    28   am
    22    28    29    2
    23    28    31    1
    24    31    32   ar
    25    32    33   ar
    26    33    34   ar
    27    34    35   ar
    28    35    37    1
    29    37    38    1
    30    37    39    1
    31    37    40    1
    32    35    36   ar
    33     3     4    1
    34     9    10    1
    35    10    11    1
    36    16    17   ar
    37    17    13   ar
    38    11     5    1
    39     4     1    1
    40    36    31   ar
    41     6    12    1
    42    22    25    1
    43    27    30    1
@<TRIPOS>MOLECULE
*****
 40 43 0 0 0
SMALL
GASTEIGER

@<TRIPOS>ATOM
      1 N         144.2452  142.4711  158.6603 N.3     1  UNL1       -0.2711
      2 C         144.2330  142.0559  160.1017 C.3     1  UNL1        0.0933
      3 C         143.0546  142.9504  160.3493 C.3     1  UNL1        0.1035
      4 C         143.0668  143.3655  158.9080 C.3     1  UNL1        0.0933
      5 C         146.7709  141.4544  155.0774 C.3     1  UNL1        0.1141
      6 O         146.7053  140.6408  153.8189 O.3     1  UNL1       -0.3821
      7 C         147.3071  142.3702  156.1375 C.3     1  UNL1        0.0331
      8 C         146.4652  142.7090  157.3318 C.3     1  UNL1        0.0187
      9 C         145.0871  142.1321  157.4660 C.3     1  UNL1        0.0578
     10 C         144.5509  141.2164  156.4059 C.3     1  UNL1        0.0187
     11 C         145.3928  140.8775  155.2116 C.3     1  UNL1        0.0331
     12 H         147.5373  140.7351  153.3292 H       1  UNL1        0.2107
     13 C         150.5079  142.1749  154.3152 C.ar    1  UNL1        0.2579
     14 N         149.9157  142.2283  152.9382 N.ar    1  UNL1       -0.2040
     15 C         148.4437  141.9649  153.0561 C.ar    1  UNL1        0.1071
     16 C         148.1262  141.7487  154.5061 C.ar    1  UNL1        0.0547
     17 S         149.4020  141.8785  155.2843 S.2     1  UNL1       -0.0307
     18 O         151.9525  142.3816  154.6624 O.3     1  UNL1       -0.4595
     19 C         152.3987  144.3401  153.0147 C.3     1  UNL1        0.0473
     20 C         152.6203  143.6871  154.3468 C.3     1  UNL1        0.1683
     21 C         153.5097  144.3396  155.3632 C.3     1  UNL1        0.0473
     22 N         142.2127  143.2893  161.5436 N.am    1  UNL1       -0.3018
     23 C         142.7523  144.1981  162.6081 C.2     1  UNL1        0.2426
     24 O         144.1338  144.7679  162.4782 O.2     1  UNL1       -0.2733
     25 H         141.3060  142.9153  161.6288 H       1  UNL1        0.1495
     26 C         141.9104  144.5371  163.8023 C.3     1  UNL1        0.1759
     27 N         141.4283  143.4475  164.7136 N.am    1  UNL1       -0.2931
     28 C         140.1820  142.6841  164.3760 C.2     1  UNL1        0.2462
     29 O         139.4178  143.0102  163.1271 O.2     1  UNL1       -0.2701
     30 H         141.9298  143.2335  165.5333 H       1  UNL1        0.1502
     31 C         139.6998  141.5946  165.2872 C.ar    1  UNL1        0.0533
     32 C         138.6469  140.6351  164.8175 C.ar    1  UNL1        0.0045
     33 C         138.1647  139.5455  165.7288 C.ar    1  UNL1        0.0001
     34 C         138.7356  139.4155  167.1098 C.ar    1  UNL1        0.0039
     35 C         139.7885  140.3750  167.5796 C.ar    1  UNL1        0.0716
     36 C         140.2707  141.4645  166.6683 C.ar    1  UNL1        0.0084
     37 C         140.3594  140.2449  168.9605 C.3     1  UNL1        0.4186
     38 F         140.9302  140.1149  170.3416 F       1  UNL1       -0.1659
     39 F         139.1935  141.0093  169.5144 F       1  UNL1       -0.1659
     40 F         141.5251  139.4806  168.4067 F       1  UNL1       -0.1659
@<TRIPOS>BOND
     1    19    20    1
     2    20    21    1
     3    20    18    1
     4    18    13    1
     5    13    14   ar
     6    14    15   ar
     7    15    16   ar
     8    16     5    1
     9     5     6    1
    10     5     7    1
    11     7     8    1
    12     8     9    1
    13     9     1    1
    14     1     2    1
    15     2     3    1
    16     3    22    1
    17    22    23   am
    18    23    24    2
    19    23    26    1
    20    26    27    1
    21    27    28   am
    22    28    29    2
    23    28    31    1
    24    31    32   ar
    25    32    33   ar
    26    33    34   ar
    27    34    35   ar
    28    35    37    1
    29    37    38    1
    30    37    39    1
    31    37    40    1
    32    35    36   ar
    33     3     4    1
    34     9    10    1
    35    10    11    1
    36    16    17   ar
    37    17    13   ar
    38    11     5    1
    39     4     1    1
    40    36    31   ar
    41     6    12    1
    42    22    25    1
    43    27    30    1
@<TRIPOS>MOLECULE
*****
 40 43 0 0 0
SMALL
GASTEIGER

@<TRIPOS>ATOM
      1 N         142.9317  139.1037  160.4804 N.3     1  UNL1       -0.2711
      2 C         142.6842  137.6710  160.1112 C.3     1  UNL1        0.0933
      3 C         142.7455  138.0351  158.6574 C.3     1  UNL1        0.1035
      4 C         142.9930  139.4678  159.0266 C.3     1  UNL1        0.0933
      5 C         143.3266  141.3705  164.3476 C.3     1  UNL1        0.1141
      6 O         144.3464  142.1505  165.1233 O.3     1  UNL1       -0.3821
      7 C         142.0228  140.7217  163.9884 C.3     1  UNL1        0.0331
      8 C         141.8912  139.9661  162.6994 C.3     1  UNL1        0.0187
      9 C         143.0634  139.8593  161.7695 C.3     1  UNL1        0.0578
     10 C         144.3672  140.5081  162.1288 C.3     1  UNL1        0.0187
     11 C         144.4988  141.2637  163.4178 C.3     1  UNL1        0.0331
     12 H         143.9501  142.4686  165.9496 H       1  UNL1        0.2107
     13 C         141.6671  141.8763  167.8198 C.ar    1  UNL1        0.2579
     14 N         140.8325  142.7830  166.9648 N.ar    1  UNL1       -0.2040
     15 C         141.3525  142.7039  165.5600 C.ar    1  UNL1        0.1071
     16 C         142.5087  141.7483  165.5469 C.ar    1  UNL1        0.0547
     17 S         142.7031  141.2368  166.9435 S.2     1  UNL1       -0.0307
     18 O         141.4960  141.6489  169.2926 O.3     1  UNL1       -0.4595
     19 C         139.2102  140.5085  169.7664 C.3     1  UNL1        0.0473
     20 C         140.1265  141.6882  169.9034 C.3     1  UNL1        0.1683
     21 C         139.6734  142.9070  170.6510 C.3     1  UNL1        0.0473
     22 N         142.6138  137.2795  157.3683 N.am    1  UNL1       -0.3018
     23 C         141.2600  137.0674  156.7582 C.2     1  UNL1        0.2426
     24 O         140.0379  137.6108  157.4372 O.2     1  UNL1       -0.2733
     25 H         143.4160  136.9229  156.9227 H       1  UNL1        0.1495
     26 C         141.1283  136.3118  155.4691 C.3     1  UNL1        0.1759
     27 N         141.0679  134.8131  155.4811 N.am    1  UNL1       -0.2931
     28 C         142.3106  134.0144  155.7414 C.2     1  UNL1        0.2462
     29 O         143.6138  134.7144  155.9896 O.2     1  UNL1       -0.2701
     30 H         140.2125  134.3536  155.3182 H       1  UNL1        0.1502
     31 C         142.2502  132.5157  155.7534 C.ar    1  UNL1        0.0533
     32 C         141.1837  131.8018  154.9767 C.ar    1  UNL1        0.0045
     33 C         141.1233  130.3031  154.9887 C.ar    1  UNL1        0.0001
     34 C         142.1293  129.5182  155.7773 C.ar    1  UNL1        0.0039
     35 C         143.1957  130.2320  156.5540 C.ar    1  UNL1        0.0716
     36 C         143.2562  131.7307  156.5420 C.ar    1  UNL1        0.0084
     37 C         144.2017  129.4471  157.3426 C.3     1  UNL1        0.4186
     38 F         145.2077  128.6622  158.1313 F       1  UNL1       -0.1659
     39 F         143.3492  129.5869  158.5690 F       1  UNL1       -0.1659
     40 F         145.0540  129.3074  156.1163 F       1  UNL1       -0.1659
@<TRIPOS>BOND
     1    19    20    1
     2    20    21    1
     3    20    18    1
     4    18    13    1
     5    13    14   ar
     6    14    15   ar
     7    15    16   ar
     8    16     5    1
     9     5     6    1
    10     5     7    1
    11     7     8    1
    12     8     9    1
    13     9     1    1
    14     1     2    1
    15     2     3    1
    16     3    22    1
    17    22    23   am
    18    23    24    2
    19    23    26    1
    20    26    27    1
    21    27    28   am
    22    28    29    2
    23    28    31    1
    24    31    32   ar
    25    32    33   ar
    26    33    34   ar
    27    34    35   ar
    28    35    37    1
    29    37    38    1
    30    37    39    1
    31    37    40    1
    32    35    36   ar
    33     3     4    1
    34     9    10    1
    35    10    11    1
    36    16    17   ar
    37    17    13   ar
    38    11     5    1
    39     4     1    1
    40    36    31   ar
    41     6    12    1
    42    22    25    1
    43    27    30    1
