@<TRIPOS>MOLECULE
*****
 31 34 0 0 0
SMALL
GASTEIGER

@<TRIPOS>ATOM
      1 C         141.5492  141.8930  166.1698 C.2     1  UNL1        0.0020
      2 C         141.0296  142.4815  167.4480 C.2     1  UNL1        0.0130
      3 C         141.2715  141.7777  168.7504 C.3     1  UNL1        0.1542
      4 C         140.5101  143.0699  168.7262 C.3     1  UNL1        0.0614
      5 C         139.9905  143.6582  170.0044 C.3     1  UNL1        0.0725
      6 N         140.2324  142.9545  171.3068 N.3     1  UNL1       -0.2972
      7 C         140.9938  141.6624  171.3310 C.3     1  UNL1        0.0725
      8 C         141.5133  141.0740  170.0528 C.3     1  UNL1        0.0614
      9 O         142.0329  140.4855  168.7746 O.3     1  UNL1       -0.4785
     10 C         142.5525  139.8972  167.4964 C.ar    1  UNL1        0.1386
     11 C         143.3139  138.6050  167.5205 C.ar    1  UNL1        0.0369
     12 C         143.8335  138.0166  166.2423 C.ar    1  UNL1        0.0031
     13 C         143.5916  138.7204  164.9399 C.ar    1  UNL1        0.0002
     14 C         142.8302  140.0125  164.9157 C.ar    1  UNL1        0.0030
     15 C         142.3106  140.6009  166.1940 C.ar    1  UNL1        0.0338
     16 H         139.3164  142.7641  171.7132 H       1  UNL1        0.1233
     17 C         140.8236  144.0043  162.2626 C.ar    1  UNL1        0.0536
     18 C         139.8648  142.9525  162.7361 C.ar    1  UNL1        0.0045
     19 C         140.1066  142.2488  164.0385 C.ar    1  UNL1        0.0001
     20 C         141.3074  142.5968  164.8674 C.ar    1  UNL1       -0.0001
     21 C         142.2663  143.6486  164.3938 C.ar    1  UNL1        0.0001
     22 C         142.0245  144.3523  163.0914 C.ar    1  UNL1        0.0045
     23 N         141.1700  144.1629  159.6926 N.am    1  UNL1       -0.2793
     24 C         140.5818  144.7080  160.9602 C.2     1  UNL1        0.2489
     25 O         139.7516  145.9570  160.9254 O.2     1  UNL1       -0.2699
     26 C         139.7189  144.5298  157.5689 C.3     1  UNL1        0.0215
     27 C         140.9282  144.8667  158.3902 C.3     1  UNL1        0.0757
     28 C         141.8955  145.9072  157.9090 C.3     1  UNL1        0.0215
     29 C         142.0002  142.9140  159.7274 C.3     1  UNL1        0.0757
     30 C         143.4837  143.0049  159.9293 C.3     1  UNL1        0.0215
     31 C         141.3467  141.5742  159.5602 C.3     1  UNL1        0.0215
@<TRIPOS>BOND
     1    26    27    1
     2    27    28    1
     3    27    23    1
     4    23    24   am
     5    24    25    2
     6    24    17    1
     7    17    18   ar
     8    18    19   ar
     9    19    20   ar
    10    20     1    1
    11     1     2    2
    12     2     3    1
    13     3     4    1
    14     4     5    1
    15     5     6    1
    16     6     7    1
    17     7     8    1
    18     3     9    1
    19     9    10    1
    20    10    11   ar
    21    11    12   ar
    22    12    13   ar
    23    13    14   ar
    24    14    15   ar
    25    20    21   ar
    26    21    22   ar
    27    23    29    1
    28    29    30    1
    29    29    31    1
    30    22    17   ar
    31    15     1    1
    32     8     3    1
    33    15    10   ar
    34     6    16    1
@<TRIPOS>MOLECULE
*****
 31 34 0 0 0
SMALL
GASTEIGER

@<TRIPOS>ATOM
      1 C         141.4201  141.0672  166.3027 C.2     1  UNL1        0.0020
      2 C         142.0627  141.6646  167.5194 C.2     1  UNL1        0.0130
      3 C         141.4646  141.4304  168.8749 C.3     1  UNL1        0.1542
      4 C         142.7052  142.2619  168.7360 C.3     1  UNL1        0.0614
      5 C         143.3478  142.8592  169.9527 C.3     1  UNL1        0.0725
      6 N         142.7497  142.6250  171.3082 N.3     1  UNL1       -0.2972
      7 C         141.5090  141.7934  171.4471 C.3     1  UNL1        0.0725
      8 C         140.8665  141.1961  170.2304 C.3     1  UNL1        0.0614
      9 O         140.2239  140.5988  169.0137 O.3     1  UNL1       -0.4785
     10 C         139.5813  140.0015  167.7970 C.ar    1  UNL1        0.1386
     11 C         138.3406  139.1699  167.9358 C.ar    1  UNL1        0.0369
     12 C         137.6981  138.5726  166.7192 C.ar    1  UNL1        0.0031
     13 C         138.2962  138.8068  165.3637 C.ar    1  UNL1        0.0002
     14 C         139.5368  139.6384  165.2248 C.ar    1  UNL1        0.0030
     15 C         140.1794  140.2357  166.4415 C.ar    1  UNL1        0.0338
     16 H         142.5341  143.5428  171.6975 H       1  UNL1        0.1233
     17 C         143.2144  141.7699  162.2361 C.ar    1  UNL1        0.0536
     18 C         143.5759  140.5387  163.0129 C.ar    1  UNL1        0.0045
     19 C         142.9779  140.3045  164.3684 C.ar    1  UNL1        0.0001
     20 C         142.0182  141.3015  164.9472 C.ar    1  UNL1       -0.0001
     21 C         141.6565  142.5328  164.1704 C.ar    1  UNL1        0.0001
     22 C         142.2546  142.7670  162.8149 C.ar    1  UNL1        0.0045
     23 N         143.0812  141.5550  159.6504 N.am    1  UNL1       -0.2793
     24 C         143.8125  142.0042  160.8806 C.2     1  UNL1        0.2489
     25 O         145.1419  142.6876  160.7554 O.2     1  UNL1       -0.2699
     26 C         143.4137  143.0754  157.5700 C.3     1  UNL1        0.0215
     27 C         143.6793  141.7893  158.2949 C.3     1  UNL1        0.0757
     28 C         144.5429  140.7374  157.6643 C.3     1  UNL1        0.0215
     29 C         141.7518  140.8716  159.7757 C.3     1  UNL1        0.0757
     30 C         140.4865  141.6742  159.7071 C.3     1  UNL1        0.0215
     31 C         141.6877  139.3856  159.9695 C.3     1  UNL1        0.0215
@<TRIPOS>BOND
     1    26    27    1
     2    27    28    1
     3    27    23    1
     4    23    24   am
     5    24    25    2
     6    24    17    1
     7    17    18   ar
     8    18    19   ar
     9    19    20   ar
    10    20     1    1
    11     1     2    2
    12     2     3    1
    13     3     4    1
    14     4     5    1
    15     5     6    1
    16     6     7    1
    17     7     8    1
    18     3     9    1
    19     9    10    1
    20    10    11   ar
    21    11    12   ar
    22    12    13   ar
    23    13    14   ar
    24    14    15   ar
    25    20    21   ar
    26    21    22   ar
    27    23    29    1
    28    29    30    1
    29    29    31    1
    30    22    17   ar
    31    15     1    1
    32     8     3    1
    33    15    10   ar
    34     6    16    1
@<TRIPOS>MOLECULE
*****
 31 34 0 0 0
SMALL
GASTEIGER

@<TRIPOS>ATOM
      1 C         139.8463  141.8469  165.5447 C.2     1  UNL1        0.0020
      2 C         140.1572  142.4245  166.8937 C.2     1  UNL1        0.0130
      3 C         140.0657  141.5626  168.1179 C.3     1  UNL1        0.1542
      4 C         140.4681  143.0021  168.2426 C.3     1  UNL1        0.0614
      5 C         140.7791  143.5798  169.5915 C.3     1  UNL1        0.0725
      6 N         140.6876  142.7178  170.8157 N.3     1  UNL1       -0.2972
      7 C         140.2851  141.2782  170.6910 C.3     1  UNL1        0.0725
      8 C         139.9742  140.7006  169.3421 C.3     1  UNL1        0.0614
      9 O         139.6632  140.1229  167.9931 O.3     1  UNL1       -0.4785
     10 C         139.3523  139.5453  166.6441 C.ar    1  UNL1        0.1386
     11 C         138.9499  138.1056  166.5194 C.ar    1  UNL1        0.0369
     12 C         138.6389  137.5280  165.1704 C.ar    1  UNL1        0.0031
     13 C         138.7305  138.3900  163.9462 C.ar    1  UNL1        0.0002
     14 C         139.1329  139.8296  164.0710 C.ar    1  UNL1        0.0030
     15 C         139.4438  140.4073  165.4200 C.ar    1  UNL1        0.0338
     16 H         140.0104  143.1600  171.4373 H       1  UNL1        0.1233
     17 C         140.1208  144.4328  161.8721 C.ar    1  UNL1        0.0536
     18 C         141.3156  144.2669  162.7636 C.ar    1  UNL1        0.0045
     19 C         141.2241  143.4049  163.9878 C.ar    1  UNL1        0.0001
     20 C         139.9378  142.7088  164.3205 C.ar    1  UNL1       -0.0001
     21 C         138.7428  142.8747  163.4290 C.ar    1  UNL1        0.0001
     22 C         138.8343  143.7367  162.2048 C.ar    1  UNL1        0.0045
     23 N         140.8063  144.7439  159.3855 N.am    1  UNL1       -0.2793
     24 C         140.2123  145.2947  160.6480 C.2     1  UNL1        0.2489
     25 O         139.7098  146.7076  160.6862 O.2     1  UNL1       -0.2699
     26 C         139.6500  146.0088  157.4328 C.3     1  UNL1        0.0215
     27 C         140.8978  145.6059  158.1614 C.3     1  UNL1        0.0757
     28 C         142.2370  146.0650  157.6657 C.3     1  UNL1        0.0215
     29 C         141.3088  143.3311  159.3473 C.3     1  UNL1        0.0757
     30 C         142.7497  143.0392  159.6448 C.3     1  UNL1        0.0215
     31 C         140.3703  142.2101  159.0115 C.3     1  UNL1        0.0215
@<TRIPOS>BOND
     1    26    27    1
     2    27    28    1
     3    27    23    1
     4    23    24   am
     5    24    25    2
     6    24    17    1
     7    17    18   ar
     8    18    19   ar
     9    19    20   ar
    10    20     1    1
    11     1     2    2
    12     2     3    1
    13     3     4    1
    14     4     5    1
    15     5     6    1
    16     6     7    1
    17     7     8    1
    18     3     9    1
    19     9    10    1
    20    10    11   ar
    21    11    12   ar
    22    12    13   ar
    23    13    14   ar
    24    14    15   ar
    25    20    21   ar
    26    21    22   ar
    27    23    29    1
    28    29    30    1
    29    29    31    1
    30    22    17   ar
    31    15     1    1
    32     8     3    1
    33    15    10   ar
    34     6    16    1
@<TRIPOS>MOLECULE
*****
 31 34 0 0 0
SMALL
GASTEIGER

@<TRIPOS>ATOM
      1 C         140.3804  142.3840  161.3930 C.2     1  UNL1        0.0020
      2 C         141.8557  142.1131  161.4113 C.2     1  UNL1        0.0130
      3 C         142.6870  142.5656  162.5749 C.3     1  UNL1        0.1542
      4 C         143.3308  141.8422  161.4295 C.3     1  UNL1        0.0614
      5 C         144.8060  141.5713  161.4478 C.3     1  UNL1        0.0725
      6 N         145.6373  142.0238  162.6115 N.3     1  UNL1       -0.2972
      7 C         144.9934  142.7472  163.7569 C.3     1  UNL1        0.0725
      8 C         143.5183  143.0181  163.7386 C.3     1  UNL1        0.0614
      9 O         142.0430  143.2890  163.7204 O.3     1  UNL1       -0.4785
     10 C         140.5678  143.5599  163.7021 C.ar    1  UNL1        0.1386
     11 C         139.9238  144.2834  164.8476 C.ar    1  UNL1        0.0369
     12 C         138.4486  144.5543  164.8293 C.ar    1  UNL1        0.0031
     13 C         137.6173  144.1017  163.6656 C.ar    1  UNL1        0.0002
     14 C         138.2612  143.3783  162.5202 C.ar    1  UNL1        0.0030
     15 C         139.7365  143.1074  162.5384 C.ar    1  UNL1        0.0338
     16 H         146.3548  142.6447  162.2371 H       1  UNL1        0.1233
     17 C         137.8865  141.0265  157.9020 C.ar    1  UNL1        0.0536
     18 C         138.2190  140.0657  159.0048 C.ar    1  UNL1        0.0045
     19 C         139.0503  140.5182  160.1685 C.ar    1  UNL1        0.0001
     20 C         139.5491  141.9315  160.2293 C.ar    1  UNL1       -0.0001
     21 C         139.2166  142.8924  159.1265 C.ar    1  UNL1        0.0001
     22 C         138.3853  142.4399  157.9628 C.ar    1  UNL1        0.0045
     23 N         137.7207  140.0728  155.4909 N.am    1  UNL1       -0.2793
     24 C         137.0552  140.5740  156.7383 C.2     1  UNL1        0.2489
     25 O         135.5583  140.6226  156.8219 O.2     1  UNL1       -0.2699
     26 C         136.5844  138.1629  154.1451 C.3     1  UNL1        0.0215
     27 C         136.8894  139.6203  154.3273 C.3     1  UNL1        0.0757
     28 C         136.3632  140.6251  153.3457 C.3     1  UNL1        0.0215
     29 C         139.2177  140.0242  155.4073 C.3     1  UNL1        0.0757
     30 C         139.9733  141.1747  154.8113 C.3     1  UNL1        0.0215
     31 C         139.9589  138.8249  155.9195 C.3     1  UNL1        0.0215
@<TRIPOS>BOND
     1    26    27    1
     2    27    28    1
     3    27    23    1
     4    23    24   am
     5    24    25    2
     6    24    17    1
     7    17    18   ar
     8    18    19   ar
     9    19    20   ar
    10    20     1    1
    11     1     2    2
    12     2     3    1
    13     3     4    1
    14     4     5    1
    15     5     6    1
    16     6     7    1
    17     7     8    1
    18     3     9    1
    19     9    10    1
    20    10    11   ar
    21    11    12   ar
    22    12    13   ar
    23    13    14   ar
    24    14    15   ar
    25    20    21   ar
    26    21    22   ar
    27    23    29    1
    28    29    30    1
    29    29    31    1
    30    22    17   ar
    31    15     1    1
    32     8     3    1
    33    15    10   ar
    34     6    16    1
@<TRIPOS>MOLECULE
*****
 31 34 0 0 0
SMALL
GASTEIGER

@<TRIPOS>ATOM
      1 C         141.1000  140.1493  161.5580 C.2     1  UNL1        0.0020
      2 C         142.4388  140.8240  161.6066 C.2     1  UNL1        0.0130
      3 C         143.3408  140.6166  162.7871 C.3     1  UNL1        0.1542
      4 C         143.7776  141.4987  161.6553 C.3     1  UNL1        0.0614
      5 C         145.1164  142.1734  161.7040 C.3     1  UNL1        0.0725
      6 N         146.0183  141.9659  162.8844 N.3     1  UNL1       -0.2972
      7 C         145.5815  141.0838  164.0162 C.3     1  UNL1        0.0725
      8 C         144.2427  140.4091  163.9675 C.3     1  UNL1        0.0614
      9 O         142.9039  139.7344  163.9189 O.3     1  UNL1       -0.4785
     10 C         141.5651  139.0597  163.8702 C.ar    1  UNL1        0.1386
     11 C         141.1282  138.1775  165.0020 C.ar    1  UNL1        0.0369
     12 C         139.7894  137.5028  164.9534 C.ar    1  UNL1        0.0031
     13 C         138.8875  137.7102  163.7729 C.ar    1  UNL1        0.0002
     14 C         139.3243  138.5924  162.6411 C.ar    1  UNL1        0.0030
     15 C         140.6632  139.2671  162.6898 C.ar    1  UNL1        0.0338
     16 H         146.1992  142.8875  163.2823 H       1  UNL1        0.1233
     17 C         138.3942  140.7716  158.0166 C.ar    1  UNL1        0.0536
     18 C         139.2719  139.5572  158.0856 C.ar    1  UNL1        0.0045
     19 C         140.1738  139.3498  159.2661 C.ar    1  UNL1        0.0001
     20 C         140.1981  140.3567  160.3775 C.ar    1  UNL1       -0.0001
     21 C         139.3203  141.5712  160.3086 C.ar    1  UNL1        0.0001
     22 C         138.4184  141.7786  159.1281 C.ar    1  UNL1        0.0045
     23 N         138.0128  141.6595  155.6050 N.am    1  UNL1       -0.2793
     24 C         137.4922  140.9790  156.8362 C.2     1  UNL1        0.2489
     25 O         136.0696  140.5059  156.8870 O.2     1  UNL1       -0.2699
     26 C         136.4737  143.2052  154.1935 C.3     1  UNL1        0.0215
     27 C         137.1109  141.8670  154.4245 C.3     1  UNL1        0.0757
     28 C         136.8461  140.7363  153.4751 C.3     1  UNL1        0.0215
     29 C         139.4354  142.1326  155.5542 C.3     1  UNL1        0.0757
     30 C         140.5032  141.2399  154.9949 C.3     1  UNL1        0.0215
     31 C         139.7902  143.4985  156.0628 C.3     1  UNL1        0.0215
@<TRIPOS>BOND
     1    26    27    1
     2    27    28    1
     3    27    23    1
     4    23    24   am
     5    24    25    2
     6    24    17    1
     7    17    18   ar
     8    18    19   ar
     9    19    20   ar
    10    20     1    1
    11     1     2    2
    12     2     3    1
    13     3     4    1
    14     4     5    1
    15     5     6    1
    16     6     7    1
    17     7     8    1
    18     3     9    1
    19     9    10    1
    20    10    11   ar
    21    11    12   ar
    22    12    13   ar
    23    13    14   ar
    24    14    15   ar
    25    20    21   ar
    26    21    22   ar
    27    23    29    1
    28    29    30    1
    29    29    31    1
    30    22    17   ar
    31    15     1    1
    32     8     3    1
    33    15    10   ar
    34     6    16    1
@<TRIPOS>MOLECULE
*****
 31 34 0 0 0
SMALL
GASTEIGER

@<TRIPOS>ATOM
      1 C         140.1234  140.3573  162.5207 C.2     1  UNL1        0.0020
      2 C         140.0676  141.8539  162.6056 C.2     1  UNL1        0.0130
      3 C         139.4620  142.5148  163.8082 C.3     1  UNL1        0.1542
      4 C         140.0118  143.3504  162.6905 C.3     1  UNL1        0.0614
      5 C         139.9560  144.8469  162.7754 C.3     1  UNL1        0.0725
      6 N         139.3504  145.5078  163.9781 N.3     1  UNL1       -0.2972
      7 C         138.8006  144.6722  165.0959 C.3     1  UNL1        0.0725
      8 C         138.8564  143.1757  165.0109 C.3     1  UNL1        0.0614
      9 O         138.9121  141.6791  164.9260 O.3     1  UNL1       -0.4785
     10 C         138.9679  140.1826  164.8411 C.ar    1  UNL1        0.1386
     11 C         138.4181  139.3469  165.9589 C.ar    1  UNL1        0.0369
     12 C         138.4739  137.8503  165.8739 C.ar    1  UNL1        0.0031
     13 C         139.0795  137.1894  164.6712 C.ar    1  UNL1        0.0002
     14 C         139.6293  138.0250  163.5535 C.ar    1  UNL1        0.0030
     15 C         139.5735  139.5217  163.6384 C.ar    1  UNL1        0.0338
     16 H         138.5832  146.0887  163.6398 H       1  UNL1        0.1233
     17 C         141.9402  138.3745  158.9126 C.ar    1  UNL1        0.0536
     18 C         142.8237  138.8890  160.0102 C.ar    1  UNL1        0.0045
     19 C         142.2181  139.5499  161.2129 C.ar    1  UNL1        0.0001
     20 C         140.7290  139.6964  161.3180 C.ar    1  UNL1       -0.0001
     21 C         139.8454  139.1819  160.2204 C.ar    1  UNL1        0.0001
     22 C         140.4510  138.5210  159.0177 C.ar    1  UNL1        0.0045
     23 N         142.7812  138.5055  156.4579 N.am    1  UNL1       -0.2793
     24 C         142.5458  137.7136  157.7099 C.2     1  UNL1        0.2489
     25 O         142.9159  136.2608  157.7593 O.2     1  UNL1       -0.2699
     26 C         142.5294  137.0206  154.3409 C.3     1  UNL1        0.0215
     27 C         143.3868  137.8446  155.2553 C.3     1  UNL1        0.0757
     28 C         144.8498  138.0076  154.9669 C.3     1  UNL1        0.0215
     29 C         142.4111  139.9583  156.4086 C.3     1  UNL1        0.0757
     30 C         141.0600  140.3714  155.9049 C.3     1  UNL1        0.0215
     31 C         143.3922  140.9980  156.8630 C.3     1  UNL1        0.0215
@<TRIPOS>BOND
     1    26    27    1
     2    27    28    1
     3    27    23    1
     4    23    24   am
     5    24    25    2
     6    24    17    1
     7    17    18   ar
     8    18    19   ar
     9    19    20   ar
    10    20     1    1
    11     1     2    2
    12     2     3    1
    13     3     4    1
    14     4     5    1
    15     5     6    1
    16     6     7    1
    17     7     8    1
    18     3     9    1
    19     9    10    1
    20    10    11   ar
    21    11    12   ar
    22    12    13   ar
    23    13    14   ar
    24    14    15   ar
    25    20    21   ar
    26    21    22   ar
    27    23    29    1
    28    29    30    1
    29    29    31    1
    30    22    17   ar
    31    15     1    1
    32     8     3    1
    33    15    10   ar
    34     6    16    1
@<TRIPOS>MOLECULE
*****
 31 34 0 0 0
SMALL
GASTEIGER

@<TRIPOS>ATOM
      1 C         140.6040  141.4081  164.0759 C.2     1  UNL1        0.0020
      2 C         139.8524  140.7560  165.1984 C.2     1  UNL1        0.0130
      3 C         140.3952  140.8104  166.5956 C.3     1  UNL1        0.1542
      4 C         139.1008  140.1041  166.3208 C.3     1  UNL1        0.0614
      5 C         138.3492  139.4521  167.4433 C.3     1  UNL1        0.0725
      6 N         138.8920  139.5064  168.8406 N.3     1  UNL1       -0.2972
      7 C         140.1865  140.2127  169.1154 C.3     1  UNL1        0.0725
      8 C         140.9380  140.8647  167.9929 C.3     1  UNL1        0.0614
      9 O         141.6897  141.5167  166.8704 O.3     1  UNL1       -0.4785
     10 C         142.4413  142.1687  165.7479 C.ar    1  UNL1        0.1386
     11 C         143.7358  142.8751  166.0227 C.ar    1  UNL1        0.0369
     12 C         144.4873  143.5271  164.9002 C.ar    1  UNL1        0.0031
     13 C         143.9445  143.4727  163.5030 C.ar    1  UNL1        0.0002
     14 C         142.6501  142.7664  163.2282 C.ar    1  UNL1        0.0030
     15 C         141.8984  142.1144  164.3507 C.ar    1  UNL1        0.0338
     16 H         139.0124  138.5411  169.1474 H       1  UNL1        0.1233
     17 C         138.9755  141.2451  159.8840 C.ar    1  UNL1        0.0536
     18 C         140.0106  140.2534  160.3256 C.ar    1  UNL1        0.0045
     19 C         140.5534  140.3077  161.7229 C.ar    1  UNL1        0.0001
     20 C         140.0612  141.3538  162.6786 C.ar    1  UNL1       -0.0001
     21 C         139.0260  142.3456  162.2370 C.ar    1  UNL1        0.0001
     22 C         138.4832  142.2913  160.8398 C.ar    1  UNL1        0.0045
     23 N         139.0645  142.0146  157.4041 N.am    1  UNL1       -0.2793
     24 C         138.4327  141.1908  158.4868 C.2     1  UNL1        0.2489
     25 O         137.2579  140.3127  158.1722 O.2     1  UNL1       -0.2699
     26 C         137.4685  142.9363  155.5729 C.3     1  UNL1        0.0215
     27 C         138.5217  141.9602  156.0069 C.3     1  UNL1        0.0757
     28 C         139.0319  140.9299  155.0435 C.3     1  UNL1        0.0215
     29 C         140.2393  142.8927  157.7187 C.3     1  UNL1        0.0757
     30 C         141.6318  142.3421  157.6317 C.3     1  UNL1        0.0215
     31 C         140.0214  144.3214  158.1203 C.3     1  UNL1        0.0215
@<TRIPOS>BOND
     1    26    27    1
     2    27    28    1
     3    27    23    1
     4    23    24   am
     5    24    25    2
     6    24    17    1
     7    17    18   ar
     8    18    19   ar
     9    19    20   ar
    10    20     1    1
    11     1     2    2
    12     2     3    1
    13     3     4    1
    14     4     5    1
    15     5     6    1
    16     6     7    1
    17     7     8    1
    18     3     9    1
    19     9    10    1
    20    10    11   ar
    21    11    12   ar
    22    12    13   ar
    23    13    14   ar
    24    14    15   ar
    25    20    21   ar
    26    21    22   ar
    27    23    29    1
    28    29    30    1
    29    29    31    1
    30    22    17   ar
    31    15     1    1
    32     8     3    1
    33    15    10   ar
    34     6    16    1
@<TRIPOS>MOLECULE
*****
 31 34 0 0 0
SMALL
GASTEIGER

@<TRIPOS>ATOM
      1 C         141.1131  141.0321  164.5901 C.2     1  UNL1        0.0020
      2 C         141.6260  140.5031  165.8967 C.2     1  UNL1        0.0130
      3 C         141.3125  141.2255  167.1733 C.3     1  UNL1        0.1542
      4 C         142.1389  139.9741  167.2032 C.3     1  UNL1        0.0614
      5 C         142.6518  139.4452  168.5098 C.3     1  UNL1        0.0725
      6 N         142.3383  140.1676  169.7864 N.3     1  UNL1       -0.2972
      7 C         141.5119  141.4190  169.7565 C.3     1  UNL1        0.0725
      8 C         140.9990  141.9480  168.4499 C.3     1  UNL1        0.0614
      9 O         140.4861  142.4770  167.1434 O.3     1  UNL1       -0.4785
     10 C         139.9732  143.0060  165.8368 C.ar    1  UNL1        0.1386
     11 C         139.1467  144.2575  165.8069 C.ar    1  UNL1        0.0369
     12 C         138.6338  144.7865  164.5003 C.ar    1  UNL1        0.0031
     13 C         138.9473  144.0640  163.2237 C.ar    1  UNL1        0.0002
     14 C         139.7737  142.8126  163.2536 C.ar    1  UNL1        0.0030
     15 C         140.2867  142.2835  164.5602 C.ar    1  UNL1        0.0338
     16 H         143.2318  140.4149  170.2118 H       1  UNL1        0.1233
     17 C         142.0535  138.8647  160.7602 C.ar    1  UNL1        0.0536
     18 C         142.9060  140.0188  161.1977 C.ar    1  UNL1        0.0045
     19 C         142.5925  140.7413  162.4743 C.ar    1  UNL1        0.0001
     20 C         141.4266  140.3096  163.3135 C.ar    1  UNL1       -0.0001
     21 C         140.5741  139.1555  162.8761 C.ar    1  UNL1        0.0001
     22 C         140.8875  138.4330  161.5995 C.ar    1  UNL1        0.0045
     23 N         141.7317  138.5814  158.1978 N.am    1  UNL1       -0.2793
     24 C         142.3670  138.1422  159.4836 C.2     1  UNL1        0.2489
     25 O         143.3160  136.9805  159.4929 O.2     1  UNL1       -0.2699
     26 C         141.1171  136.7952  156.4141 C.3     1  UNL1        0.0215
     27 C         142.0452  137.8590  156.9212 C.3     1  UNL1        0.0757
     28 C         143.2866  138.2003  156.1517 C.3     1  UNL1        0.0215
     29 C         140.7827  139.7432  158.1886 C.3     1  UNL1        0.0757
     30 C         141.3049  141.1366  157.9997 C.3     1  UNL1        0.0215
     31 C         139.3117  139.5114  158.3682 C.3     1  UNL1        0.0215
@<TRIPOS>BOND
     1    26    27    1
     2    27    28    1
     3    27    23    1
     4    23    24   am
     5    24    25    2
     6    24    17    1
     7    17    18   ar
     8    18    19   ar
     9    19    20   ar
    10    20     1    1
    11     1     2    2
    12     2     3    1
    13     3     4    1
    14     4     5    1
    15     5     6    1
    16     6     7    1
    17     7     8    1
    18     3     9    1
    19     9    10    1
    20    10    11   ar
    21    11    12   ar
    22    12    13   ar
    23    13    14   ar
    24    14    15   ar
    25    20    21   ar
    26    21    22   ar
    27    23    29    1
    28    29    30    1
    29    29    31    1
    30    22    17   ar
    31    15     1    1
    32     8     3    1
    33    15    10   ar
    34     6    16    1
@<TRIPOS>MOLECULE
*****
 31 34 0 0 0
SMALL
GASTEIGER

@<TRIPOS>ATOM
      1 C         140.9982  140.3932  163.8769 C.2     1  UNL1        0.0020
      2 C         140.0120  139.8591  164.8731 C.2     1  UNL1        0.0130
      3 C         140.1430  140.2169  166.3239 C.3     1  UNL1        0.1542
      4 C         139.0260  139.3250  165.8692 C.3     1  UNL1        0.0614
      5 C         138.0399  138.7910  166.8654 C.3     1  UNL1        0.0725
      6 N         138.1708  139.1488  168.3162 N.3     1  UNL1       -0.2972
      7 C         139.2879  140.0406  168.7708 C.3     1  UNL1        0.0725
      8 C         140.2739  140.5747  167.7747 C.3     1  UNL1        0.0614
      9 O         141.2601  141.1088  166.7785 O.3     1  UNL1       -0.4785
     10 C         142.2462  141.6429  165.7823 C.ar    1  UNL1        0.1386
     11 C         143.3633  142.5348  166.2369 C.ar    1  UNL1        0.0369
     12 C         144.3494  143.0689  165.2408 C.ar    1  UNL1        0.0031
     13 C         144.2184  142.7111  163.7900 C.ar    1  UNL1        0.0002
     14 C         143.1014  141.8192  163.3354 C.ar    1  UNL1        0.0030
     15 C         142.1152  141.2851  164.3315 C.ar    1  UNL1        0.0338
     16 H         138.2672  138.2719  168.8282 H       1  UNL1        0.1233
     17 C         140.6053  139.3197  159.5245 C.ar    1  UNL1        0.0536
     18 C         141.4345  138.4645  160.4360 C.ar    1  UNL1        0.0045
     19 C         141.5655  138.8223  161.8868 C.ar    1  UNL1        0.0001
     20 C         140.8672  140.0354  162.4261 C.ar    1  UNL1       -0.0001
     21 C         140.0380  140.8907  161.5146 C.ar    1  UNL1        0.0001
     22 C         139.9070  140.5329  160.0638 C.ar    1  UNL1        0.0045
     23 N         141.3838  139.5919  157.0608 N.am    1  UNL1       -0.2793
     24 C         140.4744  138.9619  158.0737 C.2     1  UNL1        0.2489
     25 O         139.4338  137.9741  157.6358 O.2     1  UNL1       -0.2699
     26 C         142.1379  138.1792  155.0148 C.3     1  UNL1        0.0215
     27 C         141.2529  139.2340  155.6100 C.3     1  UNL1        0.0757
     28 C         140.2370  139.9310  154.7544 C.3     1  UNL1        0.0215
     29 C         142.4244  140.5797  157.4987 C.3     1  UNL1        0.0757
     30 C         142.1362  142.0503  157.4351 C.3     1  UNL1        0.0215
     31 C         143.7530  140.0967  158.0002 C.3     1  UNL1        0.0215
@<TRIPOS>BOND
     1    26    27    1
     2    27    28    1
     3    27    23    1
     4    23    24   am
     5    24    25    2
     6    24    17    1
     7    17    18   ar
     8    18    19   ar
     9    19    20   ar
    10    20     1    1
    11     1     2    2
    12     2     3    1
    13     3     4    1
    14     4     5    1
    15     5     6    1
    16     6     7    1
    17     7     8    1
    18     3     9    1
    19     9    10    1
    20    10    11   ar
    21    11    12   ar
    22    12    13   ar
    23    13    14   ar
    24    14    15   ar
    25    20    21   ar
    26    21    22   ar
    27    23    29    1
    28    29    30    1
    29    29    31    1
    30    22    17   ar
    31    15     1    1
    32     8     3    1
    33    15    10   ar
    34     6    16    1
