@<TRIPOS>MOLECULE
*****
 37 40 0 0 0
SMALL
GASTEIGER

@<TRIPOS>ATOM
      1 C         139.2528  142.9371  160.1867 C.ar    1  UNL1        0.0690
      2 C         138.2927  141.9466  159.5976 C.ar    1  UNL1        0.0275
      3 C         138.1983  142.2124  158.1244 C.ar    1  UNL1        0.1140
      4 N         139.1001  143.3672  157.8030 N.ar    1  UNL1       -0.3223
      5 C         139.7518  143.8151  159.0776 C.ar    1  UNL1        0.0717
      6 C         140.7154  144.9645  159.0636 C.3     1  UNL1        0.1857
      7 O         141.0272  145.6661  157.7751 O.3     1  UNL1       -0.3454
      8 C         140.3755  145.2182  156.5004 C.3     1  UNL1        0.1671
      9 C         139.4119  144.0687  156.5144 C.3     1  UNL1        0.1379
     10 N         139.6512  144.3654  162.3202 N.am    1  UNL1       -0.2987
     11 C         139.6451  143.0329  161.6314 C.2     1  UNL1        0.2472
     12 O         140.0312  141.7962  162.3873 O.2     1  UNL1       -0.2701
     13 H         139.3978  145.1772  161.8240 H       1  UNL1        0.1500
     14 C         140.0435  144.4612  163.7648 C.3     1  UNL1        0.0943
     15 C         141.4732  144.2548  164.1690 C.ar    1  UNL1       -0.0045
     16 C         141.8522  143.0698  165.0068 C.ar    1  UNL1       -0.0027
     17 C         143.2818  142.8634  165.4111 C.ar    1  UNL1       -0.0003
     18 C         144.3326  143.8421  164.9774 C.ar    1  UNL1       -0.0000
     19 C         143.9536  145.0272  164.1396 C.ar    1  UNL1       -0.0003
     20 C         142.5239  145.2336  163.7354 C.ar    1  UNL1       -0.0027
     21 C         137.6616  144.1015  164.7378 C.3     1  UNL1        0.0021
     22 C         139.0060  144.7633  164.8051 C.3     1  UNL1        0.0241
     23 C         137.3509  141.4562  157.1446 C.2     1  UNL1        0.2619
     24 O         137.6306  140.0080  156.8722 O.2     1  UNL1       -0.2686
     25 N         136.2237  142.1483  156.4370 N.am    1  UNL1       -0.2975
     26 H         136.0401  143.0989  156.6158 H       1  UNL1        0.1500
     27 C         135.3763  141.3921  155.4572 C.3     1  UNL1        0.0959
     28 C         134.0292  140.8781  155.8707 C.ar    1  UNL1        0.0149
     29 C         132.7854  141.4780  155.2851 C.ar    1  UNL1        0.0036
     30 C         131.4383  140.9639  155.6986 C.ar    1  UNL1        0.0574
     31 C         131.3350  139.8499  156.6978 C.ar    1  UNL1        0.2250
     32 N         132.5788  139.2500  157.2835 N.ar    1  UNL1       -0.2104
     33 C         133.9259  139.7641  156.8699 C.ar    1  UNL1        0.0993
     34 O         129.9879  139.3359  157.1114 O.3     1  UNL1       -0.4561
     35 C         129.8152  138.6739  158.4462 C.3     1  UNL1        0.2542
     36 C         135.8761  141.1500  154.0638 C.3     1  UNL1        0.0242
     37 C         135.8213  139.7709  153.4764 C.3     1  UNL1        0.0021
@<TRIPOS>BOND
     1    21    22    1
     2    14    22    1
     3    14    10    1
     4    10    11   am
     5    11    12    2
     6    11     1    1
     7     1     2   ar
     8     2     3   ar
     9     3    23    1
    10    23    24    2
    11    23    25   am
    12    25    27    1
    13    27    36    1
    14    36    37    1
    15    27    28    1
    16    28    29   ar
    17    29    30   ar
    18    30    31   ar
    19    31    34    1
    20    34    35    1
    21    31    32   ar
    22    32    33   ar
    23     3     4   ar
    24     4     5   ar
    25     5     6    1
    26     6     7    1
    27     7     8    1
    28     8     9    1
    29    14    15    1
    30    15    16   ar
    31    16    17   ar
    32    17    18   ar
    33    18    19   ar
    34    19    20   ar
    35     5     1   ar
    36    20    15   ar
    37    33    28   ar
    38     9     4    1
    39    10    13    1
    40    25    26    1
@<TRIPOS>MOLECULE
*****
 37 40 0 0 0
SMALL
GASTEIGER

@<TRIPOS>ATOM
      1 C         142.3006  139.6189  162.4929 C.ar    1  UNL1        0.0690
      2 C         142.8120  139.3365  161.1114 C.ar    1  UNL1        0.0275
      3 C         141.6927  138.7304  160.3178 C.ar    1  UNL1        0.1140
      4 N         140.4895  138.6383  161.2089 N.ar    1  UNL1       -0.3223
      5 C         140.8653  139.1875  162.5532 C.ar    1  UNL1        0.0717
      6 C         139.8519  139.2237  163.6585 C.3     1  UNL1        0.1857
      7 O         138.4628  138.7107  163.4194 O.3     1  UNL1       -0.3454
      8 C         138.0871  138.1616  162.0751 C.3     1  UNL1        0.1671
      9 C         139.1004  138.1254  160.9698 C.3     1  UNL1        0.1379
     10 N         142.5219  141.3825  164.3880 N.am    1  UNL1       -0.2987
     11 C         143.0866  140.2263  163.6169 C.2     1  UNL1        0.2472
     12 O         144.4372  139.6776  163.9699 O.2     1  UNL1       -0.2701
     13 H         141.6354  141.7426  164.1564 H       1  UNL1        0.1500
     14 C         143.3079  141.9898  165.5120 C.3     1  UNL1        0.0943
     15 C         143.1161  141.4943  166.9148 C.ar    1  UNL1       -0.0045
     16 C         143.3530  142.4156  168.0746 C.ar    1  UNL1       -0.0027
     17 C         143.1612  141.9201  169.4773 C.ar    1  UNL1       -0.0003
     18 C         142.7325  140.5033  169.7202 C.ar    1  UNL1       -0.0000
     19 C         142.4955  139.5821  168.5604 C.ar    1  UNL1       -0.0003
     20 C         142.6873  140.0776  167.1577 C.ar    1  UNL1       -0.0027
     21 C         143.8437  144.3152  164.4849 C.3     1  UNL1        0.0021
     22 C         144.2856  143.0926  165.2332 C.3     1  UNL1        0.0241
     23 C         141.7639  138.2932  158.8847 C.2     1  UNL1        0.2619
     24 O         140.7151  138.7415  157.9107 O.2     1  UNL1       -0.2686
     25 N         142.8842  137.4075  158.4256 N.am    1  UNL1       -0.2975
     26 H         143.5727  137.1132  159.0648 H       1  UNL1        0.1500
     27 C         142.9555  136.9703  156.9925 C.3     1  UNL1        0.0959
     28 C         142.6376  135.5513  156.6246 C.ar    1  UNL1        0.0149
     29 C         141.7253  135.2623  155.4695 C.ar    1  UNL1        0.0036
     30 C         141.4074  133.8433  155.1016 C.ar    1  UNL1        0.0574
     31 C         142.0018  132.7133  155.8888 C.ar    1  UNL1        0.2250
     32 N         142.9141  133.0022  157.0439 N.ar    1  UNL1       -0.2104
     33 C         143.2320  134.4212  157.4118 C.ar    1  UNL1        0.0993
     34 O         141.6839  131.2943  155.5209 O.3     1  UNL1       -0.4561
     35 C         140.5240  130.9953  154.6180 C.3     1  UNL1        0.2542
     36 C         143.3446  137.9521  155.9274 C.3     1  UNL1        0.0242
     37 C         144.6434  137.7884  155.1949 C.3     1  UNL1        0.0021
@<TRIPOS>BOND
     1    21    22    1
     2    14    22    1
     3    14    10    1
     4    10    11   am
     5    11    12    2
     6    11     1    1
     7     1     2   ar
     8     2     3   ar
     9     3    23    1
    10    23    24    2
    11    23    25   am
    12    25    27    1
    13    27    36    1
    14    36    37    1
    15    27    28    1
    16    28    29   ar
    17    29    30   ar
    18    30    31   ar
    19    31    34    1
    20    34    35    1
    21    31    32   ar
    22    32    33   ar
    23     3     4   ar
    24     4     5   ar
    25     5     6    1
    26     6     7    1
    27     7     8    1
    28     8     9    1
    29    14    15    1
    30    15    16   ar
    31    16    17   ar
    32    17    18   ar
    33    18    19   ar
    34    19    20   ar
    35     5     1   ar
    36    20    15   ar
    37    33    28   ar
    38     9     4    1
    39    10    13    1
    40    25    26    1
@<TRIPOS>MOLECULE
*****
 37 40 0 0 0
SMALL
GASTEIGER

@<TRIPOS>ATOM
      1 C         141.3022  138.8524  162.8033 C.ar    1  UNL1        0.0690
      2 C         140.9506  138.1024  161.5527 C.ar    1  UNL1        0.0275
      3 C         141.7946  138.6416  160.4361 C.ar    1  UNL1        0.1140
      4 N         142.6679  139.7248  160.9965 N.ar    1  UNL1       -0.3223
      5 C         142.3636  139.8551  162.4595 C.ar    1  UNL1        0.0717
      6 C         143.0922  140.8700  163.2896 C.3     1  UNL1        0.1857
      7 O         144.1251  141.7545  162.6568 O.3     1  UNL1       -0.3454
      8 C         144.4295  141.6242  161.1937 C.3     1  UNL1        0.1671
      9 C         143.7008  140.6093  160.3636 C.3     1  UNL1        0.1379
     10 N         140.0351  139.7773  164.8744 N.am    1  UNL1       -0.2987
     11 C         140.6985  138.6375  164.1595 C.2     1  UNL1        0.2472
     12 O         140.7581  137.2830  164.8009 O.2     1  UNL1       -0.2701
     13 H         139.9960  140.6664  164.4534 H       1  UNL1        0.1500
     14 C         139.4314  139.5624  166.2306 C.3     1  UNL1        0.0943
     15 C         140.2383  139.8426  167.4637 C.ar    1  UNL1       -0.0045
     16 C         141.7366  139.8031  167.4046 C.ar    1  UNL1       -0.0027
     17 C         142.5434  140.0833  168.6377 C.ar    1  UNL1       -0.0003
     18 C         141.8520  140.4030  169.9298 C.ar    1  UNL1       -0.0000
     19 C         140.3536  140.4424  169.9889 C.ar    1  UNL1       -0.0003
     20 C         139.5468  140.1622  168.7558 C.ar    1  UNL1       -0.0027
     21 C         137.7564  137.6146  166.6179 C.3     1  UNL1        0.0021
     22 C         138.0209  139.0673  166.3537 C.3     1  UNL1        0.0241
     23 C         141.7697  138.1788  159.0095 C.2     1  UNL1        0.2619
     24 O         140.5363  138.3748  158.1788 O.2     1  UNL1       -0.2686
     25 N         142.9785  137.5200  158.4135 N.am    1  UNL1       -0.2975
     26 H         143.7881  137.3913  158.9588 H       1  UNL1        0.1500
     27 C         142.9536  137.0572  156.9869 C.3     1  UNL1        0.0959
     28 C         142.6741  135.6179  156.6701 C.ar    1  UNL1        0.0149
     29 C         141.7942  135.2629  155.5083 C.ar    1  UNL1        0.0036
     30 C         141.5147  133.8237  155.1915 C.ar    1  UNL1        0.0574
     31 C         142.1151  132.7394  156.0364 C.ar    1  UNL1        0.2250
     32 N         142.9950  133.0944  157.1982 N.ar    1  UNL1       -0.2104
     33 C         143.2745  134.5337  157.5150 C.ar    1  UNL1        0.0993
     34 O         141.8356  131.3001  155.7196 O.3     1  UNL1       -0.4561
     35 C         142.8275  130.2418  156.1015 C.3     1  UNL1        0.2542
     36 C         143.2083  138.0337  155.8772 C.3     1  UNL1        0.0242
     37 C         144.5525  138.0805  155.2132 C.3     1  UNL1        0.0021
@<TRIPOS>BOND
     1    21    22    1
     2    14    22    1
     3    14    10    1
     4    10    11   am
     5    11    12    2
     6    11     1    1
     7     1     2   ar
     8     2     3   ar
     9     3    23    1
    10    23    24    2
    11    23    25   am
    12    25    27    1
    13    27    36    1
    14    36    37    1
    15    27    28    1
    16    28    29   ar
    17    29    30   ar
    18    30    31   ar
    19    31    34    1
    20    34    35    1
    21    31    32   ar
    22    32    33   ar
    23     3     4   ar
    24     4     5   ar
    25     5     6    1
    26     6     7    1
    27     7     8    1
    28     8     9    1
    29    14    15    1
    30    15    16   ar
    31    16    17   ar
    32    17    18   ar
    33    18    19   ar
    34    19    20   ar
    35     5     1   ar
    36    20    15   ar
    37    33    28   ar
    38     9     4    1
    39    10    13    1
    40    25    26    1
@<TRIPOS>MOLECULE
*****
 37 40 0 0 0
SMALL
GASTEIGER

@<TRIPOS>ATOM
      1 C         139.2518  142.9237  160.2126 C.ar    1  UNL1        0.0690
      2 C         138.2960  141.9288  159.6240 C.ar    1  UNL1        0.0275
      3 C         138.2018  142.1924  158.1504 C.ar    1  UNL1        0.1140
      4 N         139.0994  143.3502  157.8282 N.ar    1  UNL1       -0.3223
      5 C         139.7484  143.8022  159.1028 C.ar    1  UNL1        0.0717
      6 C         140.7076  144.9553  159.0881 C.3     1  UNL1        0.1857
      7 O         141.0179  145.6563  157.7989 O.3     1  UNL1       -0.3454
      8 C         140.3689  145.2044  156.5243 C.3     1  UNL1        0.1671
      9 C         139.4097  144.0513  156.5390 C.3     1  UNL1        0.1379
     10 N         138.5838  143.1173  162.7160 N.am    1  UNL1       -0.2987
     11 C         139.6425  143.0228  161.6575 C.2     1  UNL1        0.2472
     12 O         141.0918  143.0274  162.0439 O.2     1  UNL1       -0.2701
     13 H         137.6325  143.1143  162.4624 H       1  UNL1        0.1500
     14 C         138.9745  143.2163  164.1608 C.3     1  UNL1        0.0943
     15 C         139.0474  141.9783  165.0046 C.ar    1  UNL1       -0.0045
     16 C         138.1193  140.8312  164.7351 C.ar    1  UNL1       -0.0027
     17 C         138.1922  139.5932  165.5789 C.ar    1  UNL1       -0.0003
     18 C         139.1932  139.5024  166.6923 C.ar    1  UNL1       -0.0000
     19 C         140.1214  140.6495  166.9618 C.ar    1  UNL1       -0.0003
     20 C         140.0485  141.8875  166.1180 C.ar    1  UNL1       -0.0027
     21 C         138.4258  145.1107  165.8519 C.3     1  UNL1        0.0021
     22 C         139.2924  144.5534  164.7617 C.3     1  UNL1        0.0241
     23 C         137.3581  141.4318  157.1708 C.2     1  UNL1        0.2619
     24 O         137.6441  139.9845  156.8996 O.2     1  UNL1       -0.2686
     25 N         136.2282  142.1185  156.4622 N.am    1  UNL1       -0.2975
     26 H         136.0404  143.0684  156.6401 H       1  UNL1        0.1500
     27 C         135.3845  141.3578  155.4826 C.3     1  UNL1        0.0959
     28 C         134.0359  140.8454  155.8935 C.ar    1  UNL1        0.0149
     29 C         132.7931  141.4769  155.3398 C.ar    1  UNL1        0.0036
     30 C         131.4445  140.9645  155.7507 C.ar    1  UNL1        0.0574
     31 C         131.3388  139.8207  156.7153 C.ar    1  UNL1        0.2250
     32 N         132.5816  139.1892  157.2690 N.ar    1  UNL1       -0.2104
     33 C         133.9302  139.7016  156.8581 C.ar    1  UNL1        0.0993
     34 O         129.9902  139.3083  157.1262 O.3     1  UNL1       -0.4561
     35 C         129.8254  138.5971  158.4365 C.3     1  UNL1        0.2542
     36 C         135.8894  141.1096  154.0922 C.3     1  UNL1        0.0242
     37 C         135.8599  139.7233  153.5200 C.3     1  UNL1        0.0021
@<TRIPOS>BOND
     1    21    22    1
     2    14    22    1
     3    14    10    1
     4    10    11   am
     5    11    12    2
     6    11     1    1
     7     1     2   ar
     8     2     3   ar
     9     3    23    1
    10    23    24    2
    11    23    25   am
    12    25    27    1
    13    27    36    1
    14    36    37    1
    15    27    28    1
    16    28    29   ar
    17    29    30   ar
    18    30    31   ar
    19    31    34    1
    20    34    35    1
    21    31    32   ar
    22    32    33   ar
    23     3     4   ar
    24     4     5   ar
    25     5     6    1
    26     6     7    1
    27     7     8    1
    28     8     9    1
    29    14    15    1
    30    15    16   ar
    31    16    17   ar
    32    17    18   ar
    33    18    19   ar
    34    19    20   ar
    35     5     1   ar
    36    20    15   ar
    37    33    28   ar
    38     9     4    1
    39    10    13    1
    40    25    26    1
@<TRIPOS>MOLECULE
*****
 37 40 0 0 0
SMALL
GASTEIGER

@<TRIPOS>ATOM
      1 C         140.2745  139.5015  160.3525 C.ar    1  UNL1        0.0690
      2 C         141.2678  138.5299  159.7874 C.ar    1  UNL1        0.0275
      3 C         141.0207  138.4200  158.3119 C.ar    1  UNL1        0.1140
      4 N         139.8748  139.3237  157.9652 N.ar    1  UNL1       -0.3223
      5 C         139.4135  139.9921  159.2264 C.ar    1  UNL1        0.0717
      6 C         138.2692  140.9610  159.1864 C.3     1  UNL1        0.1857
      7 O         137.5862  141.2616  157.8853 O.3     1  UNL1       -0.3454
      8 C         138.0474  140.5932  156.6241 C.3     1  UNL1        0.1671
      9 C         139.1917  139.6243  156.6641 C.3     1  UNL1        0.1379
     10 N         138.8352  139.8441  162.4883 N.am    1  UNL1       -0.2987
     11 C         140.1618  139.9106  161.7912 C.2     1  UNL1        0.2472
     12 O         141.3756  140.3863  162.5330 O.2     1  UNL1       -0.2701
     13 H         138.0384  139.5319  162.0014 H       1  UNL1        0.1500
     14 C         138.7225  140.2533  163.9270 C.3     1  UNL1        0.0943
     15 C         138.6993  141.7076  164.2935 C.ar    1  UNL1       -0.0045
     16 C         139.6495  142.2358  165.3270 C.ar    1  UNL1       -0.0027
     17 C         139.6263  143.6902  165.6935 C.ar    1  UNL1       -0.0003
     18 C         138.6529  144.6163  165.0266 C.ar    1  UNL1       -0.0000
     19 C         137.7028  144.0880  163.9930 C.ar    1  UNL1       -0.0003
     20 C         137.7260  142.6337  163.6265 C.ar    1  UNL1       -0.0027
     21 C         138.9429  137.7760  164.6780 C.3     1  UNL1        0.0021
     22 C         138.6331  139.2081  164.9991 C.3     1  UNL1        0.0241
     23 C         141.7854  137.5579  157.3518 C.2     1  UNL1        0.2619
     24 O         143.2729  137.7074  157.2304 O.2     1  UNL1       -0.2686
     25 N         141.0625  136.5461  156.5128 N.am    1  UNL1       -0.2975
     26 H         140.0861  136.4479  156.5925 H       1  UNL1        0.1500
     27 C         141.8272  135.6839  155.5527 C.3     1  UNL1        0.0959
     28 C         142.2556  134.3053  155.9600 C.ar    1  UNL1        0.0149
     29 C         141.5895  133.1041  155.3572 C.ar    1  UNL1        0.0036
     30 C         142.0180  131.7256  155.7646 C.ar    1  UNL1        0.0574
     31 C         143.1126  131.5482  156.7748 C.ar    1  UNL1        0.2250
     32 N         143.7787  132.7494  157.3776 N.ar    1  UNL1       -0.2104
     33 C         143.3502  134.1280  156.9702 C.ar    1  UNL1        0.0993
     34 O         143.5411  130.1697  157.1822 O.3     1  UNL1       -0.4561
     35 C         144.5334  129.9901  158.2926 C.3     1  UNL1        0.2542
     36 C         142.1633  136.2004  154.1851 C.3     1  UNL1        0.0242
     37 C         141.0699  136.4578  153.1910 C.3     1  UNL1        0.0021
@<TRIPOS>BOND
     1    21    22    1
     2    14    22    1
     3    14    10    1
     4    10    11   am
     5    11    12    2
     6    11     1    1
     7     1     2   ar
     8     2     3   ar
     9     3    23    1
    10    23    24    2
    11    23    25   am
    12    25    27    1
    13    27    36    1
    14    36    37    1
    15    27    28    1
    16    28    29   ar
    17    29    30   ar
    18    30    31   ar
    19    31    34    1
    20    34    35    1
    21    31    32   ar
    22    32    33   ar
    23     3     4   ar
    24     4     5   ar
    25     5     6    1
    26     6     7    1
    27     7     8    1
    28     8     9    1
    29    14    15    1
    30    15    16   ar
    31    16    17   ar
    32    17    18   ar
    33    18    19   ar
    34    19    20   ar
    35     5     1   ar
    36    20    15   ar
    37    33    28   ar
    38     9     4    1
    39    10    13    1
    40    25    26    1
@<TRIPOS>MOLECULE
*****
 37 40 0 0 0
SMALL
GASTEIGER

@<TRIPOS>ATOM
      1 C         142.2755  137.9875  158.3484 C.ar    1  UNL1        0.0690
      2 C         143.0483  138.2724  159.6021 C.ar    1  UNL1        0.0275
      3 C         142.1901  139.1211  160.4927 C.ar    1  UNL1        0.1140
      4 N         140.8869  139.3606  159.7896 N.ar    1  UNL1       -0.3223
      5 C         140.9397  138.6600  158.4643 C.ar    1  UNL1        0.0717
      6 C         139.7646  138.7250  157.5343 C.3     1  UNL1        0.1857
      7 O         138.5368  139.4905  157.9296 O.3     1  UNL1       -0.3454
      8 C         138.4840  140.1911  159.2549 C.3     1  UNL1        0.1671
      9 C         139.6591  140.1262  160.1849 C.3     1  UNL1        0.1379
     10 N         142.0384  135.9097  156.8066 N.am    1  UNL1       -0.2987
     11 C         142.7543  137.1730  157.1834 C.2     1  UNL1        0.2472
     12 O         143.9490  137.6215  156.3951 O.2     1  UNL1       -0.2701
     13 H         141.2543  135.6153  157.3240 H       1  UNL1        0.1500
     14 C         142.5173  135.0952  155.6416 C.3     1  UNL1        0.0943
     15 C         143.2863  133.8291  155.8772 C.ar    1  UNL1       -0.0045
     16 C         144.0675  133.6510  157.1453 C.ar    1  UNL1       -0.0027
     17 C         144.8365  132.3849  157.3809 C.ar    1  UNL1       -0.0003
     18 C         144.8244  131.2969  156.3485 C.ar    1  UNL1       -0.0000
     19 C         144.0432  131.4750  155.0804 C.ar    1  UNL1       -0.0003
     20 C         143.2742  132.7411  154.8447 C.ar    1  UNL1       -0.0027
     21 C         140.8091  135.7584  153.7999 C.3     1  UNL1        0.0021
     22 C         142.2271  135.5469  154.2410 C.3     1  UNL1        0.0241
     23 C         142.5686  139.6392  161.8486 C.2     1  UNL1        0.2619
     24 O         142.4595  141.1048  162.1487 O.2     1  UNL1       -0.2686
     25 N         143.0563  138.6917  162.9043 N.am    1  UNL1       -0.2975
     26 H         143.1279  137.7298  162.7074 H       1  UNL1        0.1500
     27 C         143.4348  139.2099  164.2601 C.3     1  UNL1        0.0959
     28 C         142.3890  139.3584  165.3251 C.ar    1  UNL1        0.0149
     29 C         142.7972  139.5777  166.7517 C.ar    1  UNL1        0.0036
     30 C         141.7514  139.7262  167.8167 C.ar    1  UNL1        0.0574
     31 C         140.2973  139.6555  167.4551 C.ar    1  UNL1        0.2250
     32 N         139.8891  139.4362  166.0284 N.ar    1  UNL1       -0.2104
     33 C         140.9349  139.2877  164.9635 C.ar    1  UNL1        0.0993
     34 O         139.2515  139.8040  168.5200 O.3     1  UNL1       -0.4561
     35 C         139.4886  140.7237  169.6810 C.3     1  UNL1        0.2542
     36 C         144.8592  139.5795  164.5509 C.3     1  UNL1        0.0242
     37 C         145.4400  140.8371  163.9756 C.3     1  UNL1        0.0021
@<TRIPOS>BOND
     1    21    22    1
     2    14    22    1
     3    14    10    1
     4    10    11   am
     5    11    12    2
     6    11     1    1
     7     1     2   ar
     8     2     3   ar
     9     3    23    1
    10    23    24    2
    11    23    25   am
    12    25    27    1
    13    27    36    1
    14    36    37    1
    15    27    28    1
    16    28    29   ar
    17    29    30   ar
    18    30    31   ar
    19    31    34    1
    20    34    35    1
    21    31    32   ar
    22    32    33   ar
    23     3     4   ar
    24     4     5   ar
    25     5     6    1
    26     6     7    1
    27     7     8    1
    28     8     9    1
    29    14    15    1
    30    15    16   ar
    31    16    17   ar
    32    17    18   ar
    33    18    19   ar
    34    19    20   ar
    35     5     1   ar
    36    20    15   ar
    37    33    28   ar
    38     9     4    1
    39    10    13    1
    40    25    26    1
@<TRIPOS>MOLECULE
*****
 37 40 0 0 0
SMALL
GASTEIGER

@<TRIPOS>ATOM
      1 C         138.2423  142.3100  158.0067 C.ar    1  UNL1        0.0690
      2 C         138.3583  142.3182  159.5022 C.ar    1  UNL1        0.0275
      3 C         139.3044  143.4165  159.8877 C.ar    1  UNL1        0.1140
      4 N         139.7732  144.0871  158.6305 N.ar    1  UNL1       -0.3223
      5 C         139.1167  143.4033  157.4680 C.ar    1  UNL1        0.0717
      6 C         139.4000  143.8644  156.0690 C.3     1  UNL1        0.1857
      7 O         140.3397  145.0094  155.8326 O.3     1  UNL1       -0.3454
      8 C         140.9961  145.6932  156.9952 C.3     1  UNL1        0.1671
      9 C         140.7129  145.2321  158.3941 C.3     1  UNL1        0.1379
     10 N         136.2388  141.9019  156.4037 N.am    1  UNL1       -0.2987
     11 C         137.3998  141.3731  157.1928 C.2     1  UNL1        0.2472
     12 O         137.7182  139.9076  157.1680 O.2     1  UNL1       -0.2701
     13 H         136.0298  142.8638  156.4200 H       1  UNL1        0.1500
     14 C         135.3963  140.9650  155.5898 C.3     1  UNL1        0.0943
     15 C         134.0082  140.6200  156.0415 C.ar    1  UNL1       -0.0045
     16 C         133.8037  139.6162  157.1372 C.ar    1  UNL1       -0.0027
     17 C         132.4156  139.2712  157.5889 C.ar    1  UNL1       -0.0003
     18 C         131.2319  139.9302  156.9450 C.ar    1  UNL1       -0.0000
     19 C         131.4363  140.9341  155.8493 C.ar    1  UNL1       -0.0003
     20 C         132.8245  141.2790  155.3976 C.ar    1  UNL1       -0.0027
     21 C         136.0726  138.8850  154.1877 C.3     1  UNL1        0.0021
     22 C         135.9420  140.3730  154.3242 C.3     1  UNL1        0.0241
     23 C         139.7106  143.7803  161.2851 C.2     1  UNL1        0.2619
     24 O         138.7593  144.5272  162.1722 O.2     1  UNL1       -0.2686
     25 N         141.0682  143.3972  161.7954 N.am    1  UNL1       -0.2975
     26 H         141.6926  142.9070  161.2131 H       1  UNL1        0.1500
     27 C         141.4743  143.7610  163.1928 C.3     1  UNL1        0.0959
     28 C         141.1882  142.8206  164.3258 C.ar    1  UNL1        0.0149
     29 C         140.5369  143.3303  165.5772 C.ar    1  UNL1        0.0036
     30 C         140.2508  142.3899  166.7103 C.ar    1  UNL1        0.0574
     31 C         140.6160  140.9399  166.5920 C.ar    1  UNL1        0.2250
     32 N         141.2673  140.4302  165.3406 N.ar    1  UNL1       -0.2104
     33 C         141.5534  141.3706  164.2075 C.ar    1  UNL1        0.0993
     34 O         140.3299  139.9995  167.7250 O.3     1  UNL1       -0.4561
     35 C         141.2274  139.9780  168.9267 C.3     1  UNL1        0.2542
     36 C         142.1665  145.0652  163.4570 C.3     1  UNL1        0.0242
     37 C         143.6177  145.0807  163.8362 C.3     1  UNL1        0.0021
@<TRIPOS>BOND
     1    21    22    1
     2    14    22    1
     3    14    10    1
     4    10    11   am
     5    11    12    2
     6    11     1    1
     7     1     2   ar
     8     2     3   ar
     9     3    23    1
    10    23    24    2
    11    23    25   am
    12    25    27    1
    13    27    36    1
    14    36    37    1
    15    27    28    1
    16    28    29   ar
    17    29    30   ar
    18    30    31   ar
    19    31    34    1
    20    34    35    1
    21    31    32   ar
    22    32    33   ar
    23     3     4   ar
    24     4     5   ar
    25     5     6    1
    26     6     7    1
    27     7     8    1
    28     8     9    1
    29    14    15    1
    30    15    16   ar
    31    16    17   ar
    32    17    18   ar
    33    18    19   ar
    34    19    20   ar
    35     5     1   ar
    36    20    15   ar
    37    33    28   ar
    38     9     4    1
    39    10    13    1
    40    25    26    1
@<TRIPOS>MOLECULE
*****
 37 40 0 0 0
SMALL
GASTEIGER

@<TRIPOS>ATOM
      1 C         142.7880  139.4964  160.6009 C.ar    1  UNL1        0.0690
      2 C         142.5733  138.2605  159.7784 C.ar    1  UNL1        0.0275
      3 C         142.9872  138.5640  158.3690 C.ar    1  UNL1        0.1140
      4 N         143.4577  139.9875  158.3203 N.ar    1  UNL1       -0.3223
      5 C         143.3345  140.5638  159.6998 C.ar    1  UNL1        0.0717
      6 C         143.7360  141.9859  159.9571 C.3     1  UNL1        0.1857
      7 O         144.2606  142.8318  158.8350 O.3     1  UNL1       -0.3454
      8 C         144.3838  142.2556  157.4556 C.3     1  UNL1        0.1671
      9 C         143.9823  140.8334  157.1982 C.3     1  UNL1        0.1379
     10 N         142.8765  138.5368  163.0137 N.am    1  UNL1       -0.2987
     11 C         142.5056  139.6398  162.0671 C.2     1  UNL1        0.2472
     12 O         141.8524  140.8861  162.5867 O.2     1  UNL1       -0.2701
     13 H         143.3052  137.7188  162.6727 H       1  UNL1        0.1500
     14 C         142.5942  138.6802  164.4799 C.3     1  UNL1        0.0943
     15 C         141.1790  138.6593  164.9767 C.ar    1  UNL1       -0.0045
     16 C         140.2743  137.5184  164.6162 C.ar    1  UNL1       -0.0027
     17 C         138.8592  137.4974  165.1130 C.ar    1  UNL1       -0.0003
     18 C         138.3487  138.6173  165.9704 C.ar    1  UNL1       -0.0000
     19 C         139.2533  139.7582  166.3309 C.ar    1  UNL1       -0.0003
     20 C         140.6685  139.7792  165.8341 C.ar    1  UNL1       -0.0027
     21 C         143.8311  137.9403  166.6414 C.3     1  UNL1        0.0021
     22 C         143.7270  138.8446  165.4492 C.3     1  UNL1        0.0241
     23 C         142.9391  137.6114  157.2113 C.2     1  UNL1        0.2619
     24 O         144.0218  137.6367  156.1737 O.2     1  UNL1       -0.2686
     25 N         141.8081  136.6333  157.0914 N.am    1  UNL1       -0.2975
     26 H         141.0974  136.6166  157.7725 H       1  UNL1        0.1500
     27 C         141.7600  135.6806  155.9338 C.3     1  UNL1        0.0959
     28 C         142.3626  134.3130  156.0624 C.ar    1  UNL1        0.0149
     29 C         143.7145  134.1451  156.6902 C.ar    1  UNL1        0.0036
     30 C         144.3171  132.7775  156.8188 C.ar    1  UNL1        0.0574
     31 C         143.5677  131.5778  156.3196 C.ar    1  UNL1        0.2250
     32 N         142.2158  131.7457  155.6919 N.ar    1  UNL1       -0.2104
     33 C         141.6132  133.1133  155.5633 C.ar    1  UNL1        0.0993
     34 O         144.1703  130.2102  156.4483 O.3     1  UNL1       -0.4561
     35 C         144.7351  129.5228  155.2406 C.3     1  UNL1        0.2542
     36 C         141.1093  136.0956  154.6476 C.3     1  UNL1        0.0242
     37 C         141.9314  136.2286  153.4000 C.3     1  UNL1        0.0021
@<TRIPOS>BOND
     1    21    22    1
     2    14    22    1
     3    14    10    1
     4    10    11   am
     5    11    12    2
     6    11     1    1
     7     1     2   ar
     8     2     3   ar
     9     3    23    1
    10    23    24    2
    11    23    25   am
    12    25    27    1
    13    27    36    1
    14    36    37    1
    15    27    28    1
    16    28    29   ar
    17    29    30   ar
    18    30    31   ar
    19    31    34    1
    20    34    35    1
    21    31    32   ar
    22    32    33   ar
    23     3     4   ar
    24     4     5   ar
    25     5     6    1
    26     6     7    1
    27     7     8    1
    28     8     9    1
    29    14    15    1
    30    15    16   ar
    31    16    17   ar
    32    17    18   ar
    33    18    19   ar
    34    19    20   ar
    35     5     1   ar
    36    20    15   ar
    37    33    28   ar
    38     9     4    1
    39    10    13    1
    40    25    26    1
@<TRIPOS>MOLECULE
*****
 37 40 0 0 0
SMALL
GASTEIGER

@<TRIPOS>ATOM
      1 C         141.7973  139.4436  163.3108 C.ar    1  UNL1        0.0690
      2 C         141.5876  138.9077  161.9256 C.ar    1  UNL1        0.0275
      3 C         142.6112  139.5349  161.0262 C.ar    1  UNL1        0.1140
      4 N         143.4534  140.4584  161.8555 N.ar    1  UNL1       -0.3223
      5 C         142.9504  140.4020  163.2675 C.ar    1  UNL1        0.0717
      6 C         143.6073  141.2306  164.3313 C.3     1  UNL1        0.1857
      7 O         144.7673  142.1156  163.9832 O.3     1  UNL1       -0.3454
      8 C         145.2703  142.1720  162.5712 C.3     1  UNL1        0.1671
      9 C         144.6133  141.3434  161.5073 C.3     1  UNL1        0.1379
     10 N         140.2746  140.1539  165.2926 N.am    1  UNL1       -0.2987
     11 C         140.9948  139.0843  164.5261 C.2     1  UNL1        0.2472
     12 O         140.9124  137.6554  164.9749 O.2     1  UNL1       -0.2701
     13 H         140.3286  141.0917  164.9980 H       1  UNL1        0.1500
     14 C         139.4721  139.7945  166.5078 C.3     1  UNL1        0.0943
     15 C         140.0835  139.9130  167.8724 C.ar    1  UNL1       -0.0045
     16 C         139.2225  140.2507  169.0533 C.ar    1  UNL1       -0.0027
     17 C         139.8339  140.3692  170.4179 C.ar    1  UNL1       -0.0003
     18 C         141.3064  140.1500  170.6015 C.ar    1  UNL1       -0.0000
     19 C         142.1674  139.8123  169.4206 C.ar    1  UNL1       -0.0003
     20 C         141.5560  139.6938  168.0560 C.ar    1  UNL1       -0.0027
     21 C         137.6745  137.9479  166.8374 C.3     1  UNL1        0.0021
     22 C         138.0581  139.3167  166.3584 C.3     1  UNL1        0.0241
     23 C         142.7654  139.2828  159.5556 C.2     1  UNL1        0.2619
     24 O         144.1094  139.4305  158.9062 O.2     1  UNL1       -0.2686
     25 N         141.5755  138.8830  158.7343 N.am    1  UNL1       -0.2975
     26 H         140.6934  138.7861  159.1604 H       1  UNL1        0.1500
     27 C         141.7298  138.6309  157.2637 C.3     1  UNL1        0.0959
     28 C         141.7884  137.2244  156.7459 C.ar    1  UNL1        0.0149
     29 C         142.8318  136.2782  157.2616 C.ar    1  UNL1        0.0036
     30 C         142.8904  134.8716  156.7439 C.ar    1  UNL1        0.0574
     31 C         141.9055  134.4112  155.7104 C.ar    1  UNL1        0.2250
     32 N         140.8621  135.3574  155.1947 N.ar    1  UNL1       -0.2104
     33 C         140.8035  136.7640  155.7124 C.ar    1  UNL1        0.0993
     34 O         141.9641  133.0046  155.1926 O.3     1  UNL1       -0.4561
     35 C         142.5217  131.9108  156.0543 C.3     1  UNL1        0.2542
     36 C         141.8254  139.7855  156.3109 C.3     1  UNL1        0.0242
     37 C         140.6043  140.5946  155.9881 C.3     1  UNL1        0.0021
@<TRIPOS>BOND
     1    21    22    1
     2    14    22    1
     3    14    10    1
     4    10    11   am
     5    11    12    2
     6    11     1    1
     7     1     2   ar
     8     2     3   ar
     9     3    23    1
    10    23    24    2
    11    23    25   am
    12    25    27    1
    13    27    36    1
    14    36    37    1
    15    27    28    1
    16    28    29   ar
    17    29    30   ar
    18    30    31   ar
    19    31    34    1
    20    34    35    1
    21    31    32   ar
    22    32    33   ar
    23     3     4   ar
    24     4     5   ar
    25     5     6    1
    26     6     7    1
    27     7     8    1
    28     8     9    1
    29    14    15    1
    30    15    16   ar
    31    16    17   ar
    32    17    18   ar
    33    18    19   ar
    34    19    20   ar
    35     5     1   ar
    36    20    15   ar
    37    33    28   ar
    38     9     4    1
    39    10    13    1
    40    25    26    1
