@<TRIPOS>MOLECULE
*****
 40 44 0 0 0
SMALL
GASTEIGER

@<TRIPOS>ATOM
      1 C         141.6358  138.7942  158.1556 C.3     1  UNL1        0.1031
      2 C         141.7290  135.7230  154.8679 C.ar    1  UNL1        0.0536
      3 C         143.0042  136.1483  155.5332 C.ar    1  UNL1        0.0042
      4 C         142.9732  137.1721  156.6291 C.ar    1  UNL1       -0.0025
      5 C         141.6669  137.7705  157.0597 C.ar    1  UNL1       -0.0036
      6 C         140.3916  137.3451  156.3943 C.ar    1  UNL1       -0.0025
      7 C         140.4227  136.3214  155.2984 C.ar    1  UNL1        0.0042
      8 N         141.6607  133.2402  154.1056 N.am    1  UNL1       -0.2761
      9 C         141.7600  134.6992  153.7720 C.2     1  UNL1        0.2490
     10 O         141.8905  135.1345  152.3425 O.2     1  UNL1       -0.2699
     11 C         142.9289  131.3995  152.7814 C.3     1  UNL1        0.0233
     12 C         141.6917  132.2165  153.0097 C.3     1  UNL1        0.0938
     13 C         141.5303  132.8049  155.5351 C.3     1  UNL1        0.0938
     14 C         142.7564  132.4742  156.3333 C.3     1  UNL1        0.0233
     15 C         141.7555  140.2521  157.8236 C.ar    1  UNL1       -0.0024
     16 C         141.9750  140.6824  156.4035 C.ar    1  UNL1       -0.0026
     17 C         142.0947  142.1403  156.0715 C.ar    1  UNL1        0.0010
     18 C         141.9948  143.1679  157.1596 C.ar    1  UNL1        0.0147
     19 C         141.7753  142.7377  158.5797 C.ar    1  UNL1        0.0500
     20 C         141.6556  141.2797  158.9117 C.ar    1  UNL1        0.0120
     21 N         141.6754  143.7653  159.6678 N.am    1  UNL1       -0.2839
     22 C         140.3301  144.1890  160.1781 C.2     1  UNL1        0.2256
     23 O         139.0845  143.5850  159.6003 O.2     1  UNL1       -0.2748
     24 H         142.4929  144.1617  160.0471 H       1  UNL1        0.1549
     25 C         140.2302  145.2166  161.2663 C.3     1  UNL1        0.0768
     26 C         139.5970  146.4538  161.8304 C.3     1  UNL1        0.0096
     27 C         140.6904  145.7592  162.5868 C.3     1  UNL1        0.0096
     28 N         141.4851  138.3601  159.5834 N.3     1  UNL1       -0.2644
     29 C         140.1277  138.3382  160.2214 C.3     1  UNL1        0.0901
     30 C         139.9771  137.9040  161.6493 C.3     1  UNL1        0.0900
     31 N         141.1838  137.4918  162.4392 N.3     1  UNL1       -0.2652
     32 C         142.5411  137.5137  161.8012 C.3     1  UNL1        0.0900
     33 C         142.6919  137.9479  160.3734 C.3     1  UNL1        0.0901
     34 C         141.0331  137.0577  163.8671 C.3     1  UNL1        0.1187
     35 C         140.3283  137.9446  164.8502 C.ar    1  UNL1        0.0752
     36 C         138.9005  137.6695  165.2191 C.ar    1  UNL1        0.0161
     37 C         138.1957  138.5565  166.2023 C.ar    1  UNL1        0.0028
     38 C         138.9186  139.7184  166.8166 C.ar    1  UNL1        0.0207
     39 C         140.3463  139.9934  166.4477 C.ar    1  UNL1        0.0985
     40 N         141.0511  139.1065  165.4645 N.ar    1  UNL1       -0.2468
@<TRIPOS>BOND
     1    11    12    1
     2    12     8    1
     3     8    13    1
     4    13    14    1
     5     8     9   am
     6     9    10    2
     7     9     2    1
     8     2     3   ar
     9     3     4   ar
    10     4     5   ar
    11     5     1    1
    12     1    15    1
    13    15    16   ar
    14    16    17   ar
    15    17    18   ar
    16    18    19   ar
    17    19    21    1
    18    21    22   am
    19    22    23    2
    20    22    25    1
    21    25    26    1
    22    26    27    1
    23    19    20   ar
    24     1    28    1
    25    28    29    1
    26    29    30    1
    27    30    31    1
    28    31    34    1
    29    34    35    1
    30    35    36   ar
    31    36    37   ar
    32    37    38   ar
    33    38    39   ar
    34    39    40   ar
    35    31    32    1
    36    32    33    1
    37     5     6   ar
    38     6     7   ar
    39     7     2   ar
    40    20    15   ar
    41    33    28    1
    42    27    25    1
    43    40    35   ar
    44    21    24    1
@<TRIPOS>MOLECULE
*****
 40 44 0 0 0
SMALL
GASTEIGER

@<TRIPOS>ATOM
      1 C         141.7524  141.3559  161.5302 C.3     1  UNL1        0.1031
      2 C         142.6639  139.5872  165.5664 C.ar    1  UNL1        0.0536
      3 C         143.6951  140.4173  164.8612 C.ar    1  UNL1        0.0042
      4 C         143.3913  141.0069  163.5158 C.ar    1  UNL1       -0.0025
      5 C         142.0562  140.7664  162.8756 C.ar    1  UNL1       -0.0036
      6 C         141.0251  139.9362  163.5809 C.ar    1  UNL1       -0.0025
      7 C         141.3289  139.3466  164.9263 C.ar    1  UNL1        0.0042
      8 N         142.3054  139.5494  168.1394 N.am    1  UNL1       -0.2761
      9 C         142.9677  138.9976  166.9118 C.2     1  UNL1        0.2490
     10 O         143.9338  137.8562  167.0297 O.2     1  UNL1       -0.2699
     11 C         142.9759  139.8557  170.6307 C.3     1  UNL1        0.0233
     12 C         142.6093  138.9598  169.4848 C.3     1  UNL1        0.0938
     13 C         141.3393  140.6909  168.0216 C.3     1  UNL1        0.0938
     14 C         139.8814  140.4709  168.2972 C.3     1  UNL1        0.0233
     15 C         141.2796  142.7754  161.4229 C.ar    1  UNL1       -0.0024
     16 C         141.3106  143.6694  162.6270 C.ar    1  UNL1       -0.0026
     17 C         140.8377  145.0888  162.5196 C.ar    1  UNL1        0.0010
     18 C         140.3339  145.6143  161.2081 C.ar    1  UNL1        0.0147
     19 C         140.3029  144.7204  160.0040 C.ar    1  UNL1        0.0500
     20 C         140.7757  143.3009  160.1114 C.ar    1  UNL1        0.0120
     21 N         139.7990  145.2459  158.6926 N.am    1  UNL1       -0.2839
     22 C         140.7560  145.8548  157.7111 C.2     1  UNL1        0.2256
     23 O         142.2169  145.9382  158.0410 O.2     1  UNL1       -0.2748
     24 H         138.8402  145.1912  158.4760 H       1  UNL1        0.1549
     25 C         140.2521  146.3803  156.3996 C.3     1  UNL1        0.0768
     26 C         140.4834  146.6964  154.9517 C.3     1  UNL1        0.0096
     27 C         139.1482  146.9744  155.5761 C.3     1  UNL1        0.0096
     28 N         141.9215  140.5261  160.2922 N.3     1  UNL1       -0.2644
     29 C         140.7964  139.6582  159.8116 C.3     1  UNL1        0.0901
     30 C         140.9655  138.8284  158.5735 C.3     1  UNL1        0.0900
     31 N         142.2596  138.8664  157.8161 N.3     1  UNL1       -0.2652
     32 C         143.3847  139.7342  158.2967 C.3     1  UNL1        0.0900
     33 C         143.2157  140.5641  159.5347 C.3     1  UNL1        0.0901
     34 C         142.4287  138.0365  156.5780 C.3     1  UNL1        0.1187
     35 C         142.5778  136.5479  156.6875 C.ar    1  UNL1        0.0752
     36 C         141.8918  135.6508  155.7002 C.ar    1  UNL1        0.0161
     37 C         142.0410  134.1623  155.8097 C.ar    1  UNL1        0.0028
     38 C         142.8761  133.5708  156.9065 C.ar    1  UNL1        0.0207
     39 C         143.5621  134.4679  157.8937 C.ar    1  UNL1        0.0985
     40 N         143.4129  135.9565  157.7842 N.ar    1  UNL1       -0.2468
@<TRIPOS>BOND
     1    11    12    1
     2    12     8    1
     3     8    13    1
     4    13    14    1
     5     8     9   am
     6     9    10    2
     7     9     2    1
     8     2     3   ar
     9     3     4   ar
    10     4     5   ar
    11     5     1    1
    12     1    15    1
    13    15    16   ar
    14    16    17   ar
    15    17    18   ar
    16    18    19   ar
    17    19    21    1
    18    21    22   am
    19    22    23    2
    20    22    25    1
    21    25    26    1
    22    26    27    1
    23    19    20   ar
    24     1    28    1
    25    28    29    1
    26    29    30    1
    27    30    31    1
    28    31    34    1
    29    34    35    1
    30    35    36   ar
    31    36    37   ar
    32    37    38   ar
    33    38    39   ar
    34    39    40   ar
    35    31    32    1
    36    32    33    1
    37     5     6   ar
    38     6     7   ar
    39     7     2   ar
    40    20    15   ar
    41    33    28    1
    42    27    25    1
    43    40    35   ar
    44    21    24    1
@<TRIPOS>MOLECULE
*****
 40 44 0 0 0
SMALL
GASTEIGER

@<TRIPOS>ATOM
      1 C         140.4440  139.3293  157.8701 C.3     1  UNL1        0.1031
      2 C         140.0265  143.7567  157.1820 C.ar    1  UNL1        0.0536
      3 C         141.2904  143.0522  156.7869 C.ar    1  UNL1        0.0042
      4 C         141.4296  141.5764  157.0163 C.ar    1  UNL1       -0.0025
      5 C         140.3049  140.8051  157.6407 C.ar    1  UNL1       -0.0036
      6 C         139.0409  141.5096  158.0358 C.ar    1  UNL1       -0.0025
      7 C         138.9018  142.9854  157.8064 C.ar    1  UNL1        0.0042
      8 N         139.2115  145.7384  155.7127 N.am    1  UNL1       -0.2761
      9 C         139.8873  145.2325  156.9526 C.2     1  UNL1        0.2490
     10 O         140.4240  146.2025  157.9630 O.2     1  UNL1       -0.2699
     11 C         139.8760  147.8853  154.4091 C.3     1  UNL1        0.0233
     12 C         139.0724  147.2142  155.4833 C.3     1  UNL1        0.0938
     13 C         138.6748  144.7684  154.7021 C.3     1  UNL1        0.0938
     14 C         137.2239  144.3887  154.7238 C.3     1  UNL1        0.0233
     15 C         140.4778  138.3886  156.7022 C.ar    1  UNL1       -0.0024
     16 C         139.9032  138.8106  155.3824 C.ar    1  UNL1       -0.0026
     17 C         139.9370  137.8700  154.2145 C.ar    1  UNL1        0.0010
     18 C         140.5454  136.5073  154.3664 C.ar    1  UNL1        0.0147
     19 C         141.1199  136.0853  155.6861 C.ar    1  UNL1        0.0500
     20 C         141.0862  137.0260  156.8541 C.ar    1  UNL1        0.0120
     21 N         141.7283  134.7227  155.8379 N.am    1  UNL1       -0.2839
     22 C         143.2084  134.5399  155.6769 C.2     1  UNL1        0.2256
     23 O         144.0802  135.7199  155.3641 O.2     1  UNL1       -0.2748
     24 H         141.1562  133.9482  156.0433 H       1  UNL1        0.1549
     25 C         143.8167  133.1772  155.8288 C.3     1  UNL1        0.0768
     26 C         143.8908  131.7352  155.4228 C.3     1  UNL1        0.0096
     27 C         144.7963  132.2592  156.4977 C.3     1  UNL1        0.0096
     28 N         140.5494  138.7941  159.2674 N.3     1  UNL1       -0.2644
     29 C         141.8979  138.5510  159.8777 C.3     1  UNL1        0.0901
     30 C         142.0033  138.0158  161.2751 C.3     1  UNL1        0.0900
     31 N         140.7602  137.7237  162.0621 N.3     1  UNL1       -0.2652
     32 C         139.4117  137.9669  161.4517 C.3     1  UNL1        0.0900
     33 C         139.3063  138.5020  160.0545 C.3     1  UNL1        0.0901
     34 C         140.8655  137.1885  163.4594 C.3     1  UNL1        0.1187
     35 C         140.2385  137.9367  164.5983 C.ar    1  UNL1        0.0752
     36 C         138.8610  137.5721  165.0672 C.ar    1  UNL1        0.0161
     37 C         138.2340  138.3203  166.2061 C.ar    1  UNL1        0.0028
     38 C         138.9844  139.4330  166.8761 C.ar    1  UNL1        0.0207
     39 C         140.3618  139.7975  166.4072 C.ar    1  UNL1        0.0985
     40 N         140.9888  139.0493  165.2683 N.ar    1  UNL1       -0.2468
@<TRIPOS>BOND
     1    11    12    1
     2    12     8    1
     3     8    13    1
     4    13    14    1
     5     8     9   am
     6     9    10    2
     7     9     2    1
     8     2     3   ar
     9     3     4   ar
    10     4     5   ar
    11     5     1    1
    12     1    15    1
    13    15    16   ar
    14    16    17   ar
    15    17    18   ar
    16    18    19   ar
    17    19    21    1
    18    21    22   am
    19    22    23    2
    20    22    25    1
    21    25    26    1
    22    26    27    1
    23    19    20   ar
    24     1    28    1
    25    28    29    1
    26    29    30    1
    27    30    31    1
    28    31    34    1
    29    34    35    1
    30    35    36   ar
    31    36    37   ar
    32    37    38   ar
    33    38    39   ar
    34    39    40   ar
    35    31    32    1
    36    32    33    1
    37     5     6   ar
    38     6     7   ar
    39     7     2   ar
    40    20    15   ar
    41    33    28    1
    42    27    25    1
    43    40    35   ar
    44    21    24    1
@<TRIPOS>MOLECULE
*****
 40 44 0 0 0
SMALL
GASTEIGER

@<TRIPOS>ATOM
      1 C         140.5870  138.7167  157.8936 C.3     1  UNL1        0.1031
      2 C         140.6797  138.5946  162.3910 C.ar    1  UNL1        0.0536
      3 C         141.8068  139.2329  161.6347 C.ar    1  UNL1        0.0042
      4 C         141.7759  139.2736  160.1355 C.ar    1  UNL1       -0.0025
      5 C         140.6179  138.6760  159.3927 C.ar    1  UNL1       -0.0036
      6 C         139.4907  138.0377  160.1491 C.ar    1  UNL1       -0.0025
      7 C         139.5216  137.9970  161.6482 C.ar    1  UNL1        0.0042
      8 N         140.0489  139.6412  164.6837 N.am    1  UNL1       -0.2761
      9 C         140.7106  138.5539  163.8901 C.2     1  UNL1        0.2490
     10 O         141.4031  137.4258  164.5956 O.2     1  UNL1       -0.2699
     11 C         138.8187  139.3399  166.9522 C.3     1  UNL1        0.0233
     12 C         140.0798  139.6005  166.1829 C.3     1  UNL1        0.0938
     13 C         139.3563  140.7693  163.9782 C.3     1  UNL1        0.0938
     14 C         137.8900  140.6772  163.6757 C.3     1  UNL1        0.0233
     15 C         141.7837  138.2718  157.1064 C.ar    1  UNL1       -0.0024
     16 C         142.7312  139.2890  156.5427 C.ar    1  UNL1       -0.0026
     17 C         143.9280  138.8440  155.7555 C.ar    1  UNL1        0.0010
     18 C         144.1773  137.3819  155.5320 C.ar    1  UNL1        0.0147
     19 C         143.2300  136.3647  156.0956 C.ar    1  UNL1        0.0500
     20 C         142.0331  136.8096  156.8829 C.ar    1  UNL1        0.0120
     21 N         143.4793  134.9026  155.8721 N.am    1  UNL1       -0.2839
     22 C         143.6989  133.9915  157.0433 C.2     1  UNL1        0.2256
     23 O         143.6690  134.5426  158.4382 O.2     1  UNL1       -0.2748
     24 H         143.4989  134.5409  154.9567 H       1  UNL1        0.1549
     25 C         143.9482  132.5294  156.8198 C.3     1  UNL1        0.0768
     26 C         143.5697  131.0967  157.0521 C.3     1  UNL1        0.0096
     27 C         144.7587  131.4297  156.2003 C.3     1  UNL1        0.0096
     28 N         139.3593  139.2024  157.1817 N.3     1  UNL1       -0.2644
     29 C         138.5183  140.2852  157.7903 C.3     1  UNL1        0.0901
     30 C         137.2906  140.7709  157.0783 C.3     1  UNL1        0.0900
     31 N         136.9039  140.1738  155.7577 N.3     1  UNL1       -0.2652
     32 C         137.7449  139.0910  155.1491 C.3     1  UNL1        0.0900
     33 C         138.9725  138.6053  155.8610 C.3     1  UNL1        0.0901
     34 C         135.6762  140.6595  155.0457 C.3     1  UNL1        0.1187
     35 C         134.3160  140.3139  155.5753 C.ar    1  UNL1        0.0752
     36 C         133.1735  141.2677  155.3877 C.ar    1  UNL1        0.0161
     37 C         131.8134  140.9221  155.9173 C.ar    1  UNL1        0.0028
     38 C         131.5957  139.6228  156.6345 C.ar    1  UNL1        0.0207
     39 C         132.7381  138.6690  156.8221 C.ar    1  UNL1        0.0985
     40 N         134.0983  139.0146  156.2925 N.ar    1  UNL1       -0.2468
@<TRIPOS>BOND
     1    11    12    1
     2    12     8    1
     3     8    13    1
     4    13    14    1
     5     8     9   am
     6     9    10    2
     7     9     2    1
     8     2     3   ar
     9     3     4   ar
    10     4     5   ar
    11     5     1    1
    12     1    15    1
    13    15    16   ar
    14    16    17   ar
    15    17    18   ar
    16    18    19   ar
    17    19    21    1
    18    21    22   am
    19    22    23    2
    20    22    25    1
    21    25    26    1
    22    26    27    1
    23    19    20   ar
    24     1    28    1
    25    28    29    1
    26    29    30    1
    27    30    31    1
    28    31    34    1
    29    34    35    1
    30    35    36   ar
    31    36    37   ar
    32    37    38   ar
    33    38    39   ar
    34    39    40   ar
    35    31    32    1
    36    32    33    1
    37     5     6   ar
    38     6     7   ar
    39     7     2   ar
    40    20    15   ar
    41    33    28    1
    42    27    25    1
    43    40    35   ar
    44    21    24    1
@<TRIPOS>MOLECULE
*****
 40 44 0 0 0
SMALL
GASTEIGER

@<TRIPOS>ATOM
      1 C         141.6630  139.0009  158.6253 C.3     1  UNL1        0.1031
      2 C         141.7842  136.1698  155.1296 C.ar    1  UNL1        0.0536
      3 C         143.0310  136.4422  155.9176 C.ar    1  UNL1        0.0042
      4 C         142.9907  137.3859  157.0828 C.ar    1  UNL1       -0.0025
      5 C         141.7034  138.0572  157.4601 C.ar    1  UNL1       -0.0036
      6 C         140.4565  137.7848  156.6720 C.ar    1  UNL1       -0.0025
      7 C         140.4969  136.8411  155.5068 C.ar    1  UNL1        0.0042
      8 N         141.6803  133.7501  154.1892 N.am    1  UNL1       -0.2761
      9 C         141.8245  135.2261  153.9643 C.2     1  UNL1        0.2490
     10 O         142.0092  135.7584  152.5742 O.2     1  UNL1       -0.2699
     11 C         140.5296  131.9499  152.7109 C.3     1  UNL1        0.0233
     12 C         141.7206  132.8064  153.0239 C.3     1  UNL1        0.0938
     13 C         141.4956  133.2178  155.5794 C.3     1  UNL1        0.0938
     14 C         142.6754  132.6988  156.3466 C.3     1  UNL1        0.0233
     15 C         142.2945  140.3569  158.5144 C.ar    1  UNL1       -0.0024
     16 C         142.8923  140.8017  157.2126 C.ar    1  UNL1       -0.0026
     17 C         143.5238  142.1578  157.1017 C.ar    1  UNL1        0.0010
     18 C         143.5576  143.0690  158.2927 C.ar    1  UNL1        0.0147
     19 C         142.9598  142.6243  159.5945 C.ar    1  UNL1        0.0500
     20 C         142.3283  141.2682  159.7054 C.ar    1  UNL1        0.0120
     21 N         142.9935  143.5356  160.7855 N.am    1  UNL1       -0.2839
     22 C         143.8880  143.2188  161.9471 C.2     1  UNL1        0.2256
     23 O         144.7488  141.9907  161.9179 O.2     1  UNL1       -0.2748
     24 H         142.4286  144.3416  160.8047 H       1  UNL1        0.1549
     25 C         143.9218  144.1301  163.1381 C.3     1  UNL1        0.0768
     26 C         143.7421  145.4942  163.7355 C.3     1  UNL1        0.0096
     27 C         144.1598  144.3443  164.6035 C.3     1  UNL1        0.0096
     28 N         140.9912  138.5885  159.9014 N.3     1  UNL1       -0.2644
     29 C         141.7963  137.9763  161.0091 C.3     1  UNL1        0.0901
     30 C         141.1244  137.5639  162.2853 C.3     1  UNL1        0.0900
     31 N         139.6474  137.7639  162.4537 N.3     1  UNL1       -0.2652
     32 C         138.8422  138.3761  161.3461 C.3     1  UNL1        0.0900
     33 C         139.5141  138.7885  160.0700 C.3     1  UNL1        0.0901
     34 C         138.9754  137.3515  163.7299 C.3     1  UNL1        0.1187
     35 C         139.0892  138.2158  164.9506 C.ar    1  UNL1        0.0752
     36 C         138.0937  138.0759  166.0640 C.ar    1  UNL1        0.0161
     37 C         138.2075  138.9402  167.2847 C.ar    1  UNL1        0.0028
     38 C         139.3167  139.9443  167.3920 C.ar    1  UNL1        0.0207
     39 C         140.3121  140.0841  166.2786 C.ar    1  UNL1        0.0985
     40 N         140.1983  139.2198  165.0579 N.ar    1  UNL1       -0.2468
@<TRIPOS>BOND
     1    11    12    1
     2    12     8    1
     3     8    13    1
     4    13    14    1
     5     8     9   am
     6     9    10    2
     7     9     2    1
     8     2     3   ar
     9     3     4   ar
    10     4     5   ar
    11     5     1    1
    12     1    15    1
    13    15    16   ar
    14    16    17   ar
    15    17    18   ar
    16    18    19   ar
    17    19    21    1
    18    21    22   am
    19    22    23    2
    20    22    25    1
    21    25    26    1
    22    26    27    1
    23    19    20   ar
    24     1    28    1
    25    28    29    1
    26    29    30    1
    27    30    31    1
    28    31    34    1
    29    34    35    1
    30    35    36   ar
    31    36    37   ar
    32    37    38   ar
    33    38    39   ar
    34    39    40   ar
    35    31    32    1
    36    32    33    1
    37     5     6   ar
    38     6     7   ar
    39     7     2   ar
    40    20    15   ar
    41    33    28    1
    42    27    25    1
    43    40    35   ar
    44    21    24    1
@<TRIPOS>MOLECULE
*****
 40 44 0 0 0
SMALL
GASTEIGER

@<TRIPOS>ATOM
      1 C         137.9862  141.9407  156.8692 C.3     1  UNL1        0.1031
      2 C         138.9740  141.0250  161.1629 C.ar    1  UNL1        0.0536
      3 C         139.2663  142.3841  160.5994 C.ar    1  UNL1        0.0042
      4 C         138.9371  142.6893  159.1682 C.ar    1  UNL1       -0.0025
      5 C         138.3155  141.6355  158.3004 C.ar    1  UNL1       -0.0036
      6 C         138.0231  140.2764  158.8639 C.ar    1  UNL1       -0.0025
      7 C         138.3524  139.9712  160.2951 C.ar    1  UNL1        0.0042
      8 N         138.5143  141.3593  163.6980 N.am    1  UNL1       -0.2761
      9 C         139.3033  140.7198  162.5941 C.2     1  UNL1        0.2490
     10 O         140.4214  139.7752  162.9214 O.2     1  UNL1       -0.2699
     11 C         138.4271  139.7451  165.7319 C.3     1  UNL1        0.0233
     12 C         138.8436  141.0541  165.1292 C.3     1  UNL1        0.0938
     13 C         137.3961  142.3040  163.3707 C.3     1  UNL1        0.0938
     14 C         137.5935  143.7827  163.5269 C.3     1  UNL1        0.0233
     15 C         137.1765  140.9695  156.0623 C.ar    1  UNL1       -0.0024
     16 C         137.8618  140.0101  155.1349 C.ar    1  UNL1       -0.0026
     17 C         137.0520  139.0389  154.3281 C.ar    1  UNL1        0.0010
     18 C         135.5569  139.0271  154.4486 C.ar    1  UNL1        0.0147
     19 C         134.8716  139.9864  155.3759 C.ar    1  UNL1        0.0500
     20 C         135.6813  140.9576  156.1828 C.ar    1  UNL1        0.0120
     21 N         133.3765  139.9745  155.4964 N.am    1  UNL1       -0.2839
     22 C         132.7206  139.2314  156.6223 C.2     1  UNL1        0.2256
     23 O         133.5599  138.5001  157.6277 O.2     1  UNL1       -0.2748
     24 H         132.8256  140.4545  154.8365 H       1  UNL1        0.1549
     25 C         131.2255  139.2195  156.7427 C.3     1  UNL1        0.0768
     26 C         129.9621  138.5325  157.1689 C.3     1  UNL1        0.0096
     27 C         129.8995  139.8860  156.5253 C.3     1  UNL1        0.0096
     28 N         138.4667  143.2171  156.2448 N.3     1  UNL1       -0.2644
     29 C         137.4882  144.1469  155.5907 C.3     1  UNL1        0.0901
     30 C         137.9687  145.4233  154.9663 C.3     1  UNL1        0.0900
     31 N         139.4278  145.7699  154.9960 N.3     1  UNL1       -0.2652
     32 C         140.4064  144.8400  155.6500 C.3     1  UNL1        0.0900
     33 C         139.9259  143.5637  156.2744 C.3     1  UNL1        0.0901
     34 C         139.9084  147.0463  154.3716 C.3     1  UNL1        0.1187
     35 C         139.4451  148.3666  154.9121 C.ar    1  UNL1        0.0752
     36 C         139.6143  149.6128  154.0946 C.ar    1  UNL1        0.0161
     37 C         139.1509  150.9331  154.6352 C.ar    1  UNL1        0.0028
     38 C         138.5184  151.0071  155.9933 C.ar    1  UNL1        0.0207
     39 C         138.3492  149.7609  156.8108 C.ar    1  UNL1        0.0985
     40 N         138.8125  148.4406  156.2702 N.ar    1  UNL1       -0.2468
@<TRIPOS>BOND
     1    11    12    1
     2    12     8    1
     3     8    13    1
     4    13    14    1
     5     8     9   am
     6     9    10    2
     7     9     2    1
     8     2     3   ar
     9     3     4   ar
    10     4     5   ar
    11     5     1    1
    12     1    15    1
    13    15    16   ar
    14    16    17   ar
    15    17    18   ar
    16    18    19   ar
    17    19    21    1
    18    21    22   am
    19    22    23    2
    20    22    25    1
    21    25    26    1
    22    26    27    1
    23    19    20   ar
    24     1    28    1
    25    28    29    1
    26    29    30    1
    27    30    31    1
    28    31    34    1
    29    34    35    1
    30    35    36   ar
    31    36    37   ar
    32    37    38   ar
    33    38    39   ar
    34    39    40   ar
    35    31    32    1
    36    32    33    1
    37     5     6   ar
    38     6     7   ar
    39     7     2   ar
    40    20    15   ar
    41    33    28    1
    42    27    25    1
    43    40    35   ar
    44    21    24    1
@<TRIPOS>MOLECULE
*****
 40 44 0 0 0
SMALL
GASTEIGER

@<TRIPOS>ATOM
      1 C         143.1069  138.3779  157.1275 C.3     1  UNL1        0.1031
      2 C         140.8292  138.5133  161.0061 C.ar    1  UNL1        0.0536
      3 C         140.2182  139.0767  159.7575 C.ar    1  UNL1        0.0042
      4 C         140.9774  139.0316  158.4646 C.ar    1  UNL1       -0.0025
      5 C         142.3477  138.4231  158.4204 C.ar    1  UNL1       -0.0036
      6 C         142.9587  137.8597  159.6690 C.ar    1  UNL1       -0.0025
      7 C         142.1995  137.9048  160.9619 C.ar    1  UNL1        0.0042
      8 N         140.2631  139.7085  163.2424 N.am    1  UNL1       -0.2761
      9 C         140.0700  138.5584  162.2990 C.2     1  UNL1        0.2490
     10 O         139.1177  137.4535  162.6485 O.2     1  UNL1       -0.2699
     11 C         138.1559  140.4095  164.5910 C.3     1  UNL1        0.0233
     12 C         139.5039  139.7536  164.5353 C.3     1  UNL1        0.0938
     13 C         141.2155  140.8135  162.8929 C.3     1  UNL1        0.0938
     14 C         140.6904  142.1237  162.3854 C.3     1  UNL1        0.0233
     15 C         142.9081  137.2317  156.1806 C.ar    1  UNL1       -0.0024
     16 C         141.9874  137.3805  155.0057 C.ar    1  UNL1       -0.0026
     17 C         141.7886  136.2343  154.0588 C.ar    1  UNL1        0.0010
     18 C         142.5104  134.9393  154.2867 C.ar    1  UNL1        0.0147
     19 C         143.4310  134.7905  155.4615 C.ar    1  UNL1        0.0500
     20 C         143.6299  135.9367  156.4085 C.ar    1  UNL1        0.0120
     21 N         144.1528  133.4955  155.6894 N.am    1  UNL1       -0.2839
     22 C         143.3925  132.2811  156.1333 C.2     1  UNL1        0.2256
     23 O         141.9103  132.3617  156.3494 O.2     1  UNL1       -0.2748
     24 H         145.1256  133.4426  155.5476 H       1  UNL1        0.1549
     25 C         144.1143  130.9861  156.3613 C.3     1  UNL1        0.0768
     26 C         144.8798  129.8135  155.8237 C.3     1  UNL1        0.0096
     27 C         144.5990  129.9157  157.2936 C.3     1  UNL1        0.0096
     28 N         144.0650  139.4790  156.7815 N.3     1  UNL1       -0.2644
     29 C         144.2451  140.6378  157.7167 C.3     1  UNL1        0.0901
     30 C         145.2032  141.7389  157.3707 C.3     1  UNL1        0.0900
     31 N         145.9811  141.6811  156.0895 N.3     1  UNL1       -0.2652
     32 C         145.8010  140.5223  155.1543 C.3     1  UNL1        0.0900
     33 C         144.8429  139.4212  155.5003 C.3     1  UNL1        0.0901
     34 C         146.9393  142.7822  155.7434 C.3     1  UNL1        0.1187
     35 C         148.1826  142.4765  154.9621 C.ar    1  UNL1        0.0752
     36 C         148.3736  143.0653  153.5957 C.ar    1  UNL1        0.0161
     37 C         149.6170  142.7595  152.8144 C.ar    1  UNL1        0.0028
     38 C         150.6694  141.8649  153.3994 C.ar    1  UNL1        0.0207
     39 C         150.4784  141.2762  154.7657 C.ar    1  UNL1        0.0985
     40 N         149.2350  141.5819  155.5470 N.ar    1  UNL1       -0.2468
@<TRIPOS>BOND
     1    11    12    1
     2    12     8    1
     3     8    13    1
     4    13    14    1
     5     8     9   am
     6     9    10    2
     7     9     2    1
     8     2     3   ar
     9     3     4   ar
    10     4     5   ar
    11     5     1    1
    12     1    15    1
    13    15    16   ar
    14    16    17   ar
    15    17    18   ar
    16    18    19   ar
    17    19    21    1
    18    21    22   am
    19    22    23    2
    20    22    25    1
    21    25    26    1
    22    26    27    1
    23    19    20   ar
    24     1    28    1
    25    28    29    1
    26    29    30    1
    27    30    31    1
    28    31    34    1
    29    34    35    1
    30    35    36   ar
    31    36    37   ar
    32    37    38   ar
    33    38    39   ar
    34    39    40   ar
    35    31    32    1
    36    32    33    1
    37     5     6   ar
    38     6     7   ar
    39     7     2   ar
    40    20    15   ar
    41    33    28    1
    42    27    25    1
    43    40    35   ar
    44    21    24    1
@<TRIPOS>MOLECULE
*****
 40 44 0 0 0
SMALL
GASTEIGER

@<TRIPOS>ATOM
      1 C         139.0193  140.5806  157.2784 C.3     1  UNL1        0.1031
      2 C         138.7239  142.6949  161.2398 C.ar    1  UNL1        0.0536
      3 C         139.4271  143.3522  160.0894 C.ar    1  UNL1        0.0042
      4 C         139.5256  142.6475  158.7690 C.ar    1  UNL1       -0.0025
      5 C         138.9208  141.2854  158.5989 C.ar    1  UNL1       -0.0036
      6 C         138.2176  140.6281  159.7492 C.ar    1  UNL1       -0.0025
      7 C         138.1192  141.3328  161.0697 C.ar    1  UNL1        0.0042
      8 N         139.5797  143.0579  163.6658 N.am    1  UNL1       -0.2761
      9 C         138.6254  143.3997  162.5602 C.2     1  UNL1        0.2490
     10 O         137.5726  144.4463  162.7751 O.2     1  UNL1       -0.2699
     11 C         140.1614  143.1902  166.1945 C.3     1  UNL1        0.0233
     12 C         139.4812  143.7626  164.9863 C.3     1  UNL1        0.0938
     13 C         140.6326  142.0112  163.4510 C.3     1  UNL1        0.0938
     14 C         141.9893  142.4046  162.9468 C.3     1  UNL1        0.0233
     15 C         138.0276  140.8788  156.1933 C.ar    1  UNL1       -0.0024
     16 C         138.4992  141.1032  154.7871 C.ar    1  UNL1       -0.0026
     17 C         137.5074  141.4014  153.7021 C.ar    1  UNL1        0.0010
     18 C         136.0440  141.4751  154.0231 C.ar    1  UNL1        0.0147
     19 C         135.5724  141.2507  155.4291 C.ar    1  UNL1        0.0500
     20 C         136.5642  140.9525  156.5143 C.ar    1  UNL1        0.0120
     21 N         134.1090  141.3244  155.7502 N.am    1  UNL1       -0.2839
     22 C         133.3590  140.0797  156.1217 C.2     1  UNL1        0.2256
     23 O         134.0724  138.7611  156.1722 O.2     1  UNL1       -0.2748
     24 H         133.6408  142.1898  155.7170 H       1  UNL1        0.1549
     25 C         131.8956  140.1534  156.4427 C.3     1  UNL1        0.0768
     26 C         130.5153  140.6366  156.1092 C.3     1  UNL1        0.0096
     27 C         130.7413  139.7980  157.3321 C.3     1  UNL1        0.0096
     28 N         140.1095  139.5776  157.0431 N.3     1  UNL1       -0.2644
     29 C         141.5458  140.0088  157.0787 C.3     1  UNL1        0.0901
     30 C         142.6360  139.0058  156.8433 C.3     1  UNL1        0.0900
     31 N         142.2900  137.5717  156.5723 N.3     1  UNL1       -0.2652
     32 C         140.8538  137.1405  156.5367 C.3     1  UNL1        0.0900
     33 C         139.7635  138.1434  156.7721 C.3     1  UNL1        0.0901
     34 C         143.3803  136.5686  156.3369 C.3     1  UNL1        0.1187
     35 C         143.0376  135.1820  155.8788 C.ar    1  UNL1        0.0752
     36 C         142.9867  134.0562  156.8688 C.ar    1  UNL1        0.0161
     37 C         142.6440  132.6696  156.4107 C.ar    1  UNL1        0.0028
     38 C         142.3521  132.4088  154.9626 C.ar    1  UNL1        0.0207
     39 C         142.4030  133.5346  153.9727 C.ar    1  UNL1        0.0985
     40 N         142.7457  134.9212  154.4308 N.ar    1  UNL1       -0.2468
@<TRIPOS>BOND
     1    11    12    1
     2    12     8    1
     3     8    13    1
     4    13    14    1
     5     8     9   am
     6     9    10    2
     7     9     2    1
     8     2     3   ar
     9     3     4   ar
    10     4     5   ar
    11     5     1    1
    12     1    15    1
    13    15    16   ar
    14    16    17   ar
    15    17    18   ar
    16    18    19   ar
    17    19    21    1
    18    21    22   am
    19    22    23    2
    20    22    25    1
    21    25    26    1
    22    26    27    1
    23    19    20   ar
    24     1    28    1
    25    28    29    1
    26    29    30    1
    27    30    31    1
    28    31    34    1
    29    34    35    1
    30    35    36   ar
    31    36    37   ar
    32    37    38   ar
    33    38    39   ar
    34    39    40   ar
    35    31    32    1
    36    32    33    1
    37     5     6   ar
    38     6     7   ar
    39     7     2   ar
    40    20    15   ar
    41    33    28    1
    42    27    25    1
    43    40    35   ar
    44    21    24    1
@<TRIPOS>MOLECULE
*****
 40 44 0 0 0
SMALL
GASTEIGER

@<TRIPOS>ATOM
      1 C         140.5623  142.3355  158.9256 C.3     1  UNL1        0.1031
      2 C         144.8277  142.3486  157.4914 C.ar    1  UNL1        0.0536
      3 C         143.8072  143.2174  156.8178 C.ar    1  UNL1        0.0042
      4 C         142.3855  143.2130  157.2958 C.ar    1  UNL1       -0.0025
      5 C         141.9841  142.3399  158.4476 C.ar    1  UNL1       -0.0036
      6 C         143.0046  141.4711  159.1212 C.ar    1  UNL1       -0.0025
      7 C         144.4263  141.4755  158.6432 C.ar    1  UNL1        0.0042
      8 N         146.6248  141.6031  155.7697 N.am    1  UNL1       -0.2761
      9 C         146.2494  142.3529  157.0134 C.2     1  UNL1        0.2490
     10 O         147.2958  143.1071  157.7790 O.2     1  UNL1       -0.2699
     11 C         148.4750  142.5670  154.2212 C.3     1  UNL1        0.0233
     12 C         148.0466  141.6075  155.2916 C.3     1  UNL1        0.0938
     13 C         145.5784  140.8489  155.0040 C.3     1  UNL1        0.0938
     14 C         145.2358  139.4406  155.3901 C.3     1  UNL1        0.0233
     15 C         140.2374  142.7929  160.3167 C.ar    1  UNL1       -0.0024
     16 C         139.9975  144.2481  160.5909 C.ar    1  UNL1       -0.0026
     17 C         139.6726  144.7055  161.9820 C.ar    1  UNL1        0.0010
     18 C         139.5875  143.7078  163.0989 C.ar    1  UNL1        0.0147
     19 C         139.8274  142.2528  162.8247 C.ar    1  UNL1        0.0500
     20 C         140.1523  141.7953  161.4336 C.ar    1  UNL1        0.0120
     21 N         139.7423  141.2551  163.9416 N.am    1  UNL1       -0.2839
     22 C         138.4935  140.4462  164.1312 C.2     1  UNL1        0.2256
     23 O         137.3297  140.6348  163.2038 O.2     1  UNL1       -0.2748
     24 H         140.5062  141.1313  164.5503 H       1  UNL1        0.1549
     25 C         138.4084  139.4485  165.2481 C.3     1  UNL1        0.0768
     26 C         138.4619  138.0285  165.7283 C.3     1  UNL1        0.0096
     27 C         138.2076  139.1406  166.7023 C.3     1  UNL1        0.0096
     28 N         139.4655  141.8738  158.0126 N.3     1  UNL1       -0.2644
     29 C         138.2861  142.7621  157.7480 C.3     1  UNL1        0.0901
     30 C         137.1892  142.3003  156.8349 C.3     1  UNL1        0.0900
     31 N         137.2718  140.9502  156.1865 N.3     1  UNL1       -0.2652
     32 C         138.4511  140.0619  156.4511 C.3     1  UNL1        0.0900
     33 C         139.5480  140.5237  157.3641 C.3     1  UNL1        0.0901
     34 C         136.1749  140.4884  155.2734 C.3     1  UNL1        0.1187
     35 C         134.7607  140.4294  155.7700 C.ar    1  UNL1        0.0752
     36 C         133.6951  141.2432  155.0974 C.ar    1  UNL1        0.0161
     37 C         132.2809  141.1842  155.5940 C.ar    1  UNL1        0.0028
     38 C         131.9323  140.3115  156.7632 C.ar    1  UNL1        0.0207
     39 C         132.9979  139.4978  157.4357 C.ar    1  UNL1        0.0985
     40 N         134.4121  139.5568  156.9391 N.ar    1  UNL1       -0.2468
@<TRIPOS>BOND
     1    11    12    1
     2    12     8    1
     3     8    13    1
     4    13    14    1
     5     8     9   am
     6     9    10    2
     7     9     2    1
     8     2     3   ar
     9     3     4   ar
    10     4     5   ar
    11     5     1    1
    12     1    15    1
    13    15    16   ar
    14    16    17   ar
    15    17    18   ar
    16    18    19   ar
    17    19    21    1
    18    21    22   am
    19    22    23    2
    20    22    25    1
    21    25    26    1
    22    26    27    1
    23    19    20   ar
    24     1    28    1
    25    28    29    1
    26    29    30    1
    27    30    31    1
    28    31    34    1
    29    34    35    1
    30    35    36   ar
    31    36    37   ar
    32    37    38   ar
    33    38    39   ar
    34    39    40   ar
    35    31    32    1
    36    32    33    1
    37     5     6   ar
    38     6     7   ar
    39     7     2   ar
    40    20    15   ar
    41    33    28    1
    42    27    25    1
    43    40    35   ar
    44    21    24    1
