@<TRIPOS>MOLECULE
*****
 31 34 0 0 0
SMALL
GASTEIGER

@<TRIPOS>ATOM
      1 C         141.0989  139.5402  162.4908 C.ar    1  UNL1        0.1014
      2 C         140.4189  138.3501  161.8814 C.ar    1  UNL1        0.0240
      3 C         139.4219  137.5650  162.6811 C.ar    1  UNL1        0.0404
      4 C         139.1049  137.9700  164.0902 C.ar    1  UNL1        0.1639
      5 N         138.1732  137.3935  165.1147 N.ar    1  UNL1       -0.2234
      6 C         138.2774  138.2272  166.3573 C.ar    1  UNL1        0.1197
      7 C         139.2734  139.3190  166.1007 C.ar    1  UNL1        0.1035
      8 N         139.7849  139.1601  164.6995 N.ar    1  UNL1       -0.2107
      9 N         140.7819  139.9451  163.8998 N.ar    1  UNL1       -0.1638
     10 C         143.7959  142.2818  161.5109 C.ar    1  UNL1        0.0214
     11 C         142.7989  141.4966  162.3106 C.ar    1  UNL1        0.0009
     12 C         142.0960  140.3253  161.6910 C.ar    1  UNL1        0.0192
     13 C         142.3901  139.9391  160.2718 C.ar    1  UNL1        0.0038
     14 C         143.3871  140.7242  159.4721 C.ar    1  UNL1        0.0294
     15 C         144.0900  141.8955  160.0916 C.ar    1  UNL1        0.1374
     16 F         145.0870  142.6806  159.2919 F       1  UNL1       -0.2045
     17 C         144.4988  143.4531  162.1304 C.3     1  UNL1        0.1014
     18 N         144.0544  143.9744  163.4649 N.3     1  UNL1       -0.2689
     19 C         141.5927  144.7506  163.7605 C.3     1  UNL1        0.0188
     20 C         143.0400  145.0768  163.5395 C.3     1  UNL1        0.0724
     21 C         144.6244  143.3933  164.7248 C.3     1  UNL1        0.0724
     22 C         143.7562  142.5731  165.6322 C.3     1  UNL1        0.0188
     23 C         139.6857  140.3831  167.0742 C.ar    1  UNL1        0.0196
     24 C         140.1523  141.7178  166.5735 C.ar    1  UNL1        0.0060
     25 C         140.5646  142.7818  167.5471 C.ar    1  UNL1        0.0520
     26 C         140.5103  142.5112  169.0214 C.ar    1  UNL1        0.1807
     27 C         140.0438  141.1764  169.5222 C.ar    1  UNL1        0.0520
     28 C         139.6315  140.1124  168.5486 C.ar    1  UNL1        0.0060
     29 S         140.9226  143.5752  169.9950 S.O     1  UNL1        0.0581
     30 C         142.2880  143.5362  170.6149 C.3     1  UNL1        0.3254
     31 O         139.9695  144.6781  170.3488 O.co2   1  UNL1       -0.6774
@<TRIPOS>UNITY_ATOM_ATTR
29 1
charge 1
31 1
charge -1
@<TRIPOS>BOND
     1    19    20    1
     2    20    18    1
     3    18    21    1
     4    21    22    1
     5    18    17    1
     6    17    10    1
     7    10    11   ar
     8    11    12   ar
     9    12     1    1
    10     1     2   ar
    11     2     3   ar
    12     3     4   ar
    13     4     5   ar
    14     5     6   ar
    15     6     7   ar
    16     7    23    1
    17    23    24   ar
    18    24    25   ar
    19    25    26   ar
    20    26    29    1
    21    29    30    1
    22    29    31    2
    23    26    27   ar
    24    27    28   ar
    25     7     8   ar
    26     8     9   ar
    27    12    13   ar
    28    13    14   ar
    29    14    15   ar
    30    15    16    1
    31    15    10   ar
    32     9     1   ar
    33     8     4   ar
    34    28    23   ar
@<TRIPOS>MOLECULE
*****
 31 34 0 0 0
SMALL
GASTEIGER

@<TRIPOS>ATOM
      1 C         140.9894  142.6932  164.6455 C.ar    1  UNL1        0.1014
      2 C         139.9412  143.6270  165.1738 C.ar    1  UNL1        0.0240
      3 C         139.3865  144.7072  164.2932 C.ar    1  UNL1        0.0404
      4 C         139.8801  144.8535  162.8843 C.ar    1  UNL1        0.1639
      5 N         139.5226  145.8156  161.7904 N.ar    1  UNL1       -0.2234
      6 C         140.3498  145.4763  160.5860 C.ar    1  UNL1        0.1197
      7 C         141.2186  144.3046  160.9356 C.ar    1  UNL1        0.1035
      8 N         140.9283  143.9196  162.3560 N.ar    1  UNL1       -0.2107
      9 N         141.4829  142.8395  163.2366 N.ar    1  UNL1       -0.1638
     10 C         142.2850  140.7829  167.8740 C.ar    1  UNL1        0.0214
     11 C         141.7303  141.8631  166.9933 C.ar    1  UNL1        0.0009
     12 C         141.5441  141.6129  165.5262 C.ar    1  UNL1        0.0192
     13 C         141.9126  140.2825  164.9395 C.ar    1  UNL1        0.0038
     14 C         142.4673  139.2023  165.8201 C.ar    1  UNL1        0.0294
     15 C         142.6535  139.4524  167.2873 C.ar    1  UNL1        0.1374
     16 F         143.2082  138.3722  168.1679 F       1  UNL1       -0.2045
     17 C         142.4712  141.0331  169.3412 C.3     1  UNL1        0.1014
     18 N         141.3009  141.4387  170.1873 N.3     1  UNL1       -0.2689
     19 C         138.9609  140.3685  169.8283 C.3     1  UNL1        0.0188
     20 C         140.2641  140.4242  170.5690 C.3     1  UNL1        0.0724
     21 C         141.1675  142.8587  170.6517 C.3     1  UNL1        0.0724
     22 C         140.4287  143.8567  169.8102 C.3     1  UNL1        0.0188
     23 C         142.2046  143.6352  160.0247 C.ar    1  UNL1        0.0196
     24 C         143.4947  143.1045  160.5761 C.ar    1  UNL1        0.0060
     25 C         144.4807  142.4352  159.6652 C.ar    1  UNL1        0.0520
     26 C         144.1767  142.2964  158.2030 C.ar    1  UNL1        0.1807
     27 C         142.8866  142.8271  157.6516 C.ar    1  UNL1        0.0520
     28 C         141.9006  143.4964  158.5625 C.ar    1  UNL1        0.0060
     29 S         145.1627  141.6270  157.2921 S.O     1  UNL1        0.0581
     30 C         146.3581  142.3844  156.7944 C.3     1  UNL1        0.3254
     31 O         144.9534  140.2004  156.8789 O.co2   1  UNL1       -0.6774
@<TRIPOS>UNITY_ATOM_ATTR
29 1
charge 1
31 1
charge -1
@<TRIPOS>BOND
     1    19    20    1
     2    20    18    1
     3    18    21    1
     4    21    22    1
     5    18    17    1
     6    17    10    1
     7    10    11   ar
     8    11    12   ar
     9    12     1    1
    10     1     2   ar
    11     2     3   ar
    12     3     4   ar
    13     4     5   ar
    14     5     6   ar
    15     6     7   ar
    16     7    23    1
    17    23    24   ar
    18    24    25   ar
    19    25    26   ar
    20    26    29    1
    21    29    30    1
    22    29    31    2
    23    26    27   ar
    24    27    28   ar
    25     7     8   ar
    26     8     9   ar
    27    12    13   ar
    28    13    14   ar
    29    14    15   ar
    30    15    16    1
    31    15    10   ar
    32     9     1   ar
    33     8     4   ar
    34    28    23   ar
@<TRIPOS>MOLECULE
*****
 31 34 0 0 0
SMALL
GASTEIGER

@<TRIPOS>ATOM
      1 C         140.5035  143.0712  164.8383 C.ar    1  UNL1        0.1014
      2 C         139.3785  143.9587  165.2816 C.ar    1  UNL1        0.0240
      3 C         138.8381  145.0051  164.3526 C.ar    1  UNL1        0.0404
      4 C         139.4228  145.1640  162.9804 C.ar    1  UNL1        0.1639
      5 N         139.0994  146.1001  161.8538 N.ar    1  UNL1       -0.2234
      6 C         140.0246  145.7911  160.7143 C.ar    1  UNL1        0.1197
      7 C         140.9197  144.6640  161.1367 C.ar    1  UNL1        0.1035
      8 N         140.5478  144.2764  162.5372 N.ar    1  UNL1       -0.2107
      9 N         141.0882  143.2301  163.4661 N.ar    1  UNL1       -0.1638
     10 C         142.3598  139.8172  166.1483 C.ar    1  UNL1        0.0214
     11 C         141.8194  140.8636  165.2193 C.ar    1  UNL1        0.0009
     12 C         141.0439  142.0247  165.7673 C.ar    1  UNL1        0.0192
     13 C         140.8089  142.1395  167.2443 C.ar    1  UNL1        0.0038
     14 C         141.3493  141.0931  168.1733 C.ar    1  UNL1        0.0294
     15 C         142.1248  139.9319  167.6253 C.ar    1  UNL1        0.1374
     16 F         142.6652  138.8855  168.5542 F       1  UNL1       -0.2045
     17 C         143.1353  138.6560  165.6002 C.3     1  UNL1        0.1014
     18 N         143.8239  138.7736  164.2728 N.3     1  UNL1       -0.2689
     19 C         141.7374  137.7748  163.0901 C.3     1  UNL1        0.0188
     20 C         143.1582  138.2525  163.0338 C.3     1  UNL1        0.0724
     21 C         145.1783  139.4121  164.1845 C.3     1  UNL1        0.0724
     22 C         145.3095  140.8305  163.7144 C.3     1  UNL1        0.0188
     23 C         141.9976  144.0349  160.3046 C.ar    1  UNL1        0.0196
     24 C         141.9705  144.1751  158.8114 C.ar    1  UNL1        0.0060
     25 C         143.0484  143.5460  157.9793 C.ar    1  UNL1        0.0520
     26 C         144.1534  142.7767  158.6404 C.ar    1  UNL1        0.1807
     27 C         144.1806  142.6365  160.1335 C.ar    1  UNL1        0.0520
     28 C         143.1027  143.2656  160.9656 C.ar    1  UNL1        0.0060
     29 S         145.2313  142.1476  157.8083 S.O     1  UNL1        0.0581
     30 C         144.9639  140.8634  157.0806 C.3     1  UNL1        0.3254
     31 O         146.5767  142.8026  157.7038 O.co2   1  UNL1       -0.6774
@<TRIPOS>UNITY_ATOM_ATTR
29 1
charge 1
31 1
charge -1
@<TRIPOS>BOND
     1    19    20    1
     2    20    18    1
     3    18    21    1
     4    21    22    1
     5    18    17    1
     6    17    10    1
     7    10    11   ar
     8    11    12   ar
     9    12     1    1
    10     1     2   ar
    11     2     3   ar
    12     3     4   ar
    13     4     5   ar
    14     5     6   ar
    15     6     7   ar
    16     7    23    1
    17    23    24   ar
    18    24    25   ar
    19    25    26   ar
    20    26    29    1
    21    29    30    1
    22    29    31    2
    23    26    27   ar
    24    27    28   ar
    25     7     8   ar
    26     8     9   ar
    27    12    13   ar
    28    13    14   ar
    29    14    15   ar
    30    15    16    1
    31    15    10   ar
    32     9     1   ar
    33     8     4   ar
    34    28    23   ar
@<TRIPOS>MOLECULE
*****
 31 34 0 0 0
SMALL
GASTEIGER

@<TRIPOS>ATOM
      1 C         141.6167  141.3570  164.8248 C.ar    1  UNL1        0.1014
      2 C         142.3010  142.5174  165.4845 C.ar    1  UNL1        0.0240
      3 C         143.3918  143.2531  164.7643 C.ar    1  UNL1        0.0404
      4 C         143.7983  142.8285  163.3842 C.ar    1  UNL1        0.1639
      5 N         144.8320  143.3580  162.4348 N.ar    1  UNL1       -0.2234
      6 C         144.7865  142.5248  161.1884 C.ar    1  UNL1        0.1197
      7 C         143.7247  141.4805  161.3674 C.ar    1  UNL1        0.1035
      8 N         143.1140  141.6682  162.7245 N.ar    1  UNL1       -0.2107
      9 N         142.0232  140.9324  163.4448 N.ar    1  UNL1       -0.1638
     10 C         139.2873  140.0298  167.7510 C.ar    1  UNL1        0.0214
     11 C         140.3781  140.7656  167.0308 C.ar    1  UNL1        0.0009
     12 C         140.5259  140.6212  165.5451 C.ar    1  UNL1        0.0192
     13 C         139.5828  139.7411  164.7796 C.ar    1  UNL1        0.0038
     14 C         138.4920  139.0053  165.4998 C.ar    1  UNL1        0.0294
     15 C         138.3442  139.1497  166.9856 C.ar    1  UNL1        0.1374
     16 F         137.2534  138.4139  167.7058 F       1  UNL1       -0.2045
     17 C         139.1396  140.1742  169.2367 C.3     1  UNL1        0.1014
     18 N         140.1556  140.9520  170.0194 N.3     1  UNL1       -0.2689
     19 C         142.7251  140.6229  169.8207 C.3     1  UNL1        0.0188
     20 C         141.4193  140.2865  170.4778 C.3     1  UNL1        0.0724
     21 C         139.9081  142.3954  170.3437 C.3     1  UNL1        0.0724
     22 C         140.4143  143.4680  169.4254 C.3     1  UNL1        0.0188
     23 C         143.3410  140.4324  160.3652 C.ar    1  UNL1        0.0196
     24 C         143.3265  138.9857  160.7612 C.ar    1  UNL1        0.0060
     25 C         142.9428  137.9376  159.7591 C.ar    1  UNL1        0.0520
     26 C         142.5737  138.3361  158.3609 C.ar    1  UNL1        0.1807
     27 C         142.5882  139.7829  157.9650 C.ar    1  UNL1        0.0520
     28 C         142.9719  140.8309  158.9671 C.ar    1  UNL1        0.0060
     29 S         142.1900  137.2881  157.3588 S.O     1  UNL1        0.0581
     30 C         140.8231  137.3054  156.7414 C.3     1  UNL1        0.3254
     31 O         143.1732  136.2226  156.9741 O.co2   1  UNL1       -0.6774
@<TRIPOS>UNITY_ATOM_ATTR
29 1
charge 1
31 1
charge -1
@<TRIPOS>BOND
     1    19    20    1
     2    20    18    1
     3    18    21    1
     4    21    22    1
     5    18    17    1
     6    17    10    1
     7    10    11   ar
     8    11    12   ar
     9    12     1    1
    10     1     2   ar
    11     2     3   ar
    12     3     4   ar
    13     4     5   ar
    14     5     6   ar
    15     6     7   ar
    16     7    23    1
    17    23    24   ar
    18    24    25   ar
    19    25    26   ar
    20    26    29    1
    21    29    30    1
    22    29    31    2
    23    26    27   ar
    24    27    28   ar
    25     7     8   ar
    26     8     9   ar
    27    12    13   ar
    28    13    14   ar
    29    14    15   ar
    30    15    16    1
    31    15    10   ar
    32     9     1   ar
    33     8     4   ar
    34    28    23   ar
@<TRIPOS>MOLECULE
*****
 31 34 0 0 0
SMALL
GASTEIGER

@<TRIPOS>ATOM
      1 C         139.1496  142.2413  163.3556 C.ar    1  UNL1        0.1014
      2 C         138.2078  143.3022  163.8427 C.ar    1  UNL1        0.0240
      3 C         138.2119  144.6594  163.2039 C.ar    1  UNL1        0.0404
      4 C         139.1578  144.9555  162.0780 C.ar    1  UNL1        0.1639
      5 N         139.3883  146.1913  161.2595 N.ar    1  UNL1       -0.2234
      6 C         140.4725  145.8940  160.2665 C.ar    1  UNL1        0.1197
      7 C         140.9121  144.4745  160.4714 C.ar    1  UNL1        0.1035
      8 N         140.0995  143.8945  161.5909 N.ar    1  UNL1       -0.2107
      9 N         140.0955  142.5374  162.2297 N.ar    1  UNL1       -0.1638
     10 C         140.2835  138.5834  164.3971 C.ar    1  UNL1        0.0214
     11 C         140.2875  139.9406  163.7583 C.ar    1  UNL1        0.0009
     12 C         139.1456  140.8840  163.9945 C.ar    1  UNL1        0.0192
     13 C         137.9997  140.4704  164.8695 C.ar    1  UNL1        0.0038
     14 C         137.9956  139.1133  165.5083 C.ar    1  UNL1        0.0294
     15 C         139.1375  138.1697  165.2721 C.ar    1  UNL1        0.1374
     16 F         139.1335  136.8126  165.9109 F       1  UNL1       -0.2045
     17 C         141.4254  137.6399  164.1609 C.3     1  UNL1        0.1014
     18 N         142.7494  138.1671  163.6928 N.3     1  UNL1       -0.2689
     19 C         143.1795  139.3448  161.4172 C.3     1  UNL1        0.0188
     20 C         143.1152  138.0922  162.2400 C.3     1  UNL1        0.0724
     21 C         143.7075  138.7692  164.6773 C.3     1  UNL1        0.0724
     22 C         143.4995  138.5630  166.1485 C.3     1  UNL1        0.0188
     23 C         141.9773  143.7604  159.6933 C.ar    1  UNL1        0.0196
     24 C         143.1771  143.2037  160.4008 C.ar    1  UNL1        0.0060
     25 C         144.2423  142.4896  159.6228 C.ar    1  UNL1        0.0520
     26 C         144.1078  142.3321  158.1372 C.ar    1  UNL1        0.1807
     27 C         142.9079  142.8887  157.4296 C.ar    1  UNL1        0.0520
     28 C         141.8428  143.6028  158.2077 C.ar    1  UNL1        0.0060
     29 S         145.1729  141.6179  157.3591 S.O     1  UNL1        0.0581
     30 C         146.3876  142.3636  156.8917 C.3     1  UNL1        0.3254
     31 O         145.0234  140.1581  157.0485 O.co2   1  UNL1       -0.6774
@<TRIPOS>UNITY_ATOM_ATTR
29 1
charge 1
31 1
charge -1
@<TRIPOS>BOND
     1    19    20    1
     2    20    18    1
     3    18    21    1
     4    21    22    1
     5    18    17    1
     6    17    10    1
     7    10    11   ar
     8    11    12   ar
     9    12     1    1
    10     1     2   ar
    11     2     3   ar
    12     3     4   ar
    13     4     5   ar
    14     5     6   ar
    15     6     7   ar
    16     7    23    1
    17    23    24   ar
    18    24    25   ar
    19    25    26   ar
    20    26    29    1
    21    29    30    1
    22    29    31    2
    23    26    27   ar
    24    27    28   ar
    25     7     8   ar
    26     8     9   ar
    27    12    13   ar
    28    13    14   ar
    29    14    15   ar
    30    15    16    1
    31    15    10   ar
    32     9     1   ar
    33     8     4   ar
    34    28    23   ar
@<TRIPOS>MOLECULE
*****
 31 34 0 0 0
SMALL
GASTEIGER

@<TRIPOS>ATOM
      1 C         139.9518  143.3103  163.5532 C.ar    1  UNL1        0.1014
      2 C         139.6583  144.7752  163.6873 C.ar    1  UNL1        0.0240
      3 C         139.6596  145.6546  162.4721 C.ar    1  UNL1        0.0404
      4 C         139.9543  145.0692  161.1229 C.ar    1  UNL1        0.1639
      5 N         140.0262  145.6834  159.7562 N.ar    1  UNL1       -0.2234
      6 C         140.3640  144.5980  158.7776 C.ar    1  UNL1        0.1197
      7 C         140.5010  143.3131  159.5393 C.ar    1  UNL1        0.1035
      8 N         140.2478  143.6043  160.9888 N.ar    1  UNL1       -0.2107
      9 N         140.2465  142.7249  162.2040 N.ar    1  UNL1       -0.1638
     10 C         139.5975  140.0986  165.8575 C.ar    1  UNL1        0.0214
     11 C         139.5988  140.9781  164.6424 C.ar    1  UNL1        0.0009
     12 C         139.9505  142.4308  164.7683 C.ar    1  UNL1        0.0192
     13 C         140.3009  143.0041  166.1094 C.ar    1  UNL1        0.0038
     14 C         140.2997  142.1247  167.3246 C.ar    1  UNL1        0.0294
     15 C         139.9480  140.6719  167.1986 C.ar    1  UNL1        0.1374
     16 F         139.9467  139.7925  168.4138 F       1  UNL1       -0.2045
     17 C         139.2459  138.6459  165.7316 C.3     1  UNL1        0.1014
     18 N         139.7402  137.8536  164.5578 N.3     1  UNL1       -0.2689
     19 C         139.2918  138.0136  162.0037 C.3     1  UNL1        0.0188
     20 C         138.8423  137.6193  163.3794 C.3     1  UNL1        0.0724
     21 C         141.1325  137.2957  164.5624 C.3     1  UNL1        0.0724
     22 C         142.3046  138.2022  164.3293 C.3     1  UNL1        0.0188
     23 C         140.8329  141.9724  158.9543 C.ar    1  UNL1        0.0196
     24 C         139.9326  140.7997  159.2080 C.ar    1  UNL1        0.0060
     25 C         140.2645  139.4590  158.6230 C.ar    1  UNL1        0.0520
     26 C         141.4966  139.2908  157.7843 C.ar    1  UNL1        0.1807
     27 C         142.3970  140.4634  157.5307 C.ar    1  UNL1        0.0520
     28 C         142.0651  141.8042  158.1157 C.ar    1  UNL1        0.0060
     29 S         141.8285  137.9501  157.1993 S.O     1  UNL1        0.0581
     30 C         140.7614  137.1423  156.5221 C.3     1  UNL1        0.3254
     31 O         143.2276  137.4171  157.2915 O.co2   1  UNL1       -0.6774
@<TRIPOS>UNITY_ATOM_ATTR
29 1
charge 1
31 1
charge -1
@<TRIPOS>BOND
     1    19    20    1
     2    20    18    1
     3    18    21    1
     4    21    22    1
     5    18    17    1
     6    17    10    1
     7    10    11   ar
     8    11    12   ar
     9    12     1    1
    10     1     2   ar
    11     2     3   ar
    12     3     4   ar
    13     4     5   ar
    14     5     6   ar
    15     6     7   ar
    16     7    23    1
    17    23    24   ar
    18    24    25   ar
    19    25    26   ar
    20    26    29    1
    21    29    30    1
    22    29    31    2
    23    26    27   ar
    24    27    28   ar
    25     7     8   ar
    26     8     9   ar
    27    12    13   ar
    28    13    14   ar
    29    14    15   ar
    30    15    16    1
    31    15    10   ar
    32     9     1   ar
    33     8     4   ar
    34    28    23   ar
@<TRIPOS>MOLECULE
*****
 31 34 0 0 0
SMALL
GASTEIGER

@<TRIPOS>ATOM
      1 C         142.8454  138.6586  159.1644 C.ar    1  UNL1        0.1014
      2 C         142.8719  140.0055  158.5047 C.ar    1  UNL1        0.0240
      3 C         142.9035  140.1073  157.0086 C.ar    1  UNL1        0.0404
      4 C         142.9084  138.8622  156.1720 C.ar    1  UNL1        0.1639
      5 N         142.9366  138.6508  154.6872 N.ar    1  UNL1       -0.2234
      6 C         142.9275  137.1732  154.4292 C.ar    1  UNL1        0.1197
      7 C         142.8937  136.4714  155.7546 C.ar    1  UNL1        0.1035
      8 N         142.8818  137.5153  156.8316 N.ar    1  UNL1       -0.2107
      9 N         142.8503  137.4135  158.3278 N.ar    1  UNL1       -0.1638
     10 C         141.5843  137.8692  162.8437 C.ar    1  UNL1        0.0214
     11 C         141.6158  137.9711  161.3474 C.ar    1  UNL1        0.0009
     12 C         142.8139  138.5567  160.6606 C.ar    1  UNL1        0.0192
     13 C         143.9804  139.0404  161.4700 C.ar    1  UNL1        0.0038
     14 C         143.9490  138.9386  162.9662 C.ar    1  UNL1        0.0294
     15 C         142.7509  138.3529  163.6530 C.ar    1  UNL1        0.1374
     16 F         142.7194  138.2511  165.1492 F       1  UNL1       -0.2045
     17 C         140.3863  137.2836  163.5304 C.3     1  UNL1        0.1014
     18 N         139.2696  138.1772  163.9826 N.3     1  UNL1       -0.2689
     19 C         139.6734  139.3751  166.2524 C.3     1  UNL1        0.0188
     20 C         138.9715  138.3235  165.4454 C.3     1  UNL1        0.0724
     21 C         138.4511  138.9247  162.9720 C.3     1  UNL1        0.0724
     22 C         137.8871  138.2047  161.7831 C.3     1  UNL1        0.0188
     23 C         142.8749  134.9865  155.9657 C.ar    1  UNL1        0.0196
     24 C         141.7775  134.1576  155.3670 C.ar    1  UNL1        0.0060
     25 C         141.7587  132.6727  155.5782 C.ar    1  UNL1        0.0520
     26 C         142.8373  132.0166  156.3881 C.ar    1  UNL1        0.1807
     27 C         143.9348  132.8455  156.9869 C.ar    1  UNL1        0.0520
     28 C         143.9535  134.3304  156.7757 C.ar    1  UNL1        0.0060
     29 S         142.8186  130.5316  156.5993 S.O     1  UNL1        0.0581
     30 C         142.1894  129.6361  155.5736 C.3     1  UNL1        0.3254
     31 O         143.4290  129.9423  157.8362 O.co2   1  UNL1       -0.6774
@<TRIPOS>UNITY_ATOM_ATTR
29 1
charge 1
31 1
charge -1
@<TRIPOS>BOND
     1    19    20    1
     2    20    18    1
     3    18    21    1
     4    21    22    1
     5    18    17    1
     6    17    10    1
     7    10    11   ar
     8    11    12   ar
     9    12     1    1
    10     1     2   ar
    11     2     3   ar
    12     3     4   ar
    13     4     5   ar
    14     5     6   ar
    15     6     7   ar
    16     7    23    1
    17    23    24   ar
    18    24    25   ar
    19    25    26   ar
    20    26    29    1
    21    29    30    1
    22    29    31    2
    23    26    27   ar
    24    27    28   ar
    25     7     8   ar
    26     8     9   ar
    27    12    13   ar
    28    13    14   ar
    29    14    15   ar
    30    15    16    1
    31    15    10   ar
    32     9     1   ar
    33     8     4   ar
    34    28    23   ar
@<TRIPOS>MOLECULE
*****
 31 34 0 0 0
SMALL
GASTEIGER

@<TRIPOS>ATOM
      1 C         140.9253  143.1283  163.9140 C.ar    1  UNL1        0.1014
      2 C         139.8644  144.1043  164.3284 C.ar    1  UNL1        0.0240
      3 C         139.3656  145.1288  163.3530 C.ar    1  UNL1        0.0404
      4 C         139.9278  145.1773  161.9631 C.ar    1  UNL1        0.1639
      5 N         139.6346  146.0682  160.7924 N.ar    1  UNL1       -0.2234
      6 C         140.5144  145.6427  159.6545 C.ar    1  UNL1        0.1197
      7 C         141.3513  144.4889  160.1219 C.ar    1  UNL1        0.1035
      8 N         140.9887  144.2013  161.5487 N.ar    1  UNL1       -0.2107
      9 N         141.4875  143.1767  162.5241 N.ar    1  UNL1       -0.1638
     10 C         141.6401  139.6241  165.6346 C.ar    1  UNL1        0.0214
     11 C         141.1412  140.6487  164.6592 C.ar    1  UNL1        0.0009
     12 C         141.4242  142.1036  164.8894 C.ar    1  UNL1        0.0192
     13 C         142.2060  142.5341  166.0951 C.ar    1  UNL1        0.0038
     14 C         142.7048  141.5096  167.0705 C.ar    1  UNL1        0.0294
     15 C         142.4219  140.0545  166.8403 C.ar    1  UNL1        0.1374
     16 F         142.9207  139.0300  167.8157 F       1  UNL1       -0.2045
     17 C         141.3571  138.1692  165.4044 C.3     1  UNL1        0.1014
     18 N         140.6865  137.7268  164.1377 N.3     1  UNL1       -0.2689
     19 C         138.5355  138.0329  162.7132 C.3     1  UNL1        0.0188
     20 C         139.1904  137.7516  164.0330 C.3     1  UNL1        0.0724
     21 C         141.5120  137.2596  162.9757 C.3     1  UNL1        0.0724
     22 C         142.3914  138.2286  162.2427 C.3     1  UNL1        0.0188
     23 C         142.3716  143.7520  159.3058 C.ar    1  UNL1        0.0196
     24 C         142.2580  143.7243  157.8103 C.ar    1  UNL1        0.0060
     25 C         143.2783  142.9875  156.9942 C.ar    1  UNL1        0.0520
     26 C         144.4122  142.2783  157.6735 C.ar    1  UNL1        0.1807
     27 C         144.5257  142.3060  159.1689 C.ar    1  UNL1        0.0520
     28 C         143.5054  143.0429  159.9850 C.ar    1  UNL1        0.0060
     29 S         145.4325  141.5415  156.8574 S.O     1  UNL1        0.0581
     30 C         146.6697  142.2478  156.3880 C.3     1  UNL1        0.3254
     31 O         145.2155  140.0983  156.5107 O.co2   1  UNL1       -0.6774
@<TRIPOS>UNITY_ATOM_ATTR
29 1
charge 1
31 1
charge -1
@<TRIPOS>BOND
     1    19    20    1
     2    20    18    1
     3    18    21    1
     4    21    22    1
     5    18    17    1
     6    17    10    1
     7    10    11   ar
     8    11    12   ar
     9    12     1    1
    10     1     2   ar
    11     2     3   ar
    12     3     4   ar
    13     4     5   ar
    14     5     6   ar
    15     6     7   ar
    16     7    23    1
    17    23    24   ar
    18    24    25   ar
    19    25    26   ar
    20    26    29    1
    21    29    30    1
    22    29    31    2
    23    26    27   ar
    24    27    28   ar
    25     7     8   ar
    26     8     9   ar
    27    12    13   ar
    28    13    14   ar
    29    14    15   ar
    30    15    16    1
    31    15    10   ar
    32     9     1   ar
    33     8     4   ar
    34    28    23   ar
@<TRIPOS>MOLECULE
*****
 31 34 0 0 0
SMALL
GASTEIGER

@<TRIPOS>ATOM
      1 C         142.3740  140.3097  164.2136 C.ar    1  UNL1        0.1014
      2 C         143.6037  139.5264  164.5661 C.ar    1  UNL1        0.0240
      3 C         144.2361  138.6247  163.5477 C.ar    1  UNL1        0.0404
      4 C         143.6388  138.5064  162.1769 C.ar    1  UNL1        0.1639
      5 N         144.0382  137.7042  160.9739 N.ar    1  UNL1       -0.2234
      6 C         143.0552  137.9917  159.8779 C.ar    1  UNL1        0.1197
      7 C         142.0485  138.9716  160.4036 C.ar    1  UNL1        0.1035
      8 N         142.4091  139.2897  161.8244 N.ar    1  UNL1       -0.2107
      9 N         141.7768  140.1913  162.8427 N.ar    1  UNL1       -0.1638
     10 C         140.1901  143.2137  165.8098 C.ar    1  UNL1        0.0214
     11 C         140.8225  142.3119  164.7914 C.ar    1  UNL1        0.0009
     12 C         141.7416  141.2114  165.2319 C.ar    1  UNL1        0.0192
     13 C         142.0283  141.0125  166.6908 C.ar    1  UNL1        0.0038
     14 C         141.3959  141.9142  167.7091 C.ar    1  UNL1        0.0294
     15 C         140.4767  143.0148  167.2686 C.ar    1  UNL1        0.1374
     16 F         139.8443  143.9164  168.2870 F       1  UNL1       -0.2045
     17 C         139.2710  144.3142  165.3692 C.3     1  UNL1        0.1014
     18 N         139.0748  144.5874  163.9074 N.3     1  UNL1       -0.2689
     19 C         139.6843  146.1052  161.8888 C.3     1  UNL1        0.0188
     20 C         140.0811  145.4076  163.1561 C.3     1  UNL1        0.0724
     21 C         137.8722  144.0405  163.1970 C.3     1  UNL1        0.0724
     22 C         137.4973  142.5972  163.3593 C.3     1  UNL1        0.0188
     23 C         140.8852  139.5346  159.6421 C.ar    1  UNL1        0.0196
     24 C         139.4885  139.3370  160.1522 C.ar    1  UNL1        0.0060
     25 C         138.3253  139.9000  159.3906 C.ar    1  UNL1        0.0520
     26 C         138.5587  140.6606  158.1191 C.ar    1  UNL1        0.1807
     27 C         139.9554  140.8582  157.6090 C.ar    1  UNL1        0.0520
     28 C         141.1186  140.2952  158.3705 C.ar    1  UNL1        0.0060
     29 S         137.3954  141.2236  157.3576 S.O     1  UNL1        0.0581
     30 C         137.4393  142.6375  156.8586 C.3     1  UNL1        0.3254
     31 O         136.1883  140.3727  157.0951 O.co2   1  UNL1       -0.6774
@<TRIPOS>UNITY_ATOM_ATTR
29 1
charge 1
31 1
charge -1
@<TRIPOS>BOND
     1    19    20    1
     2    20    18    1
     3    18    21    1
     4    21    22    1
     5    18    17    1
     6    17    10    1
     7    10    11   ar
     8    11    12   ar
     9    12     1    1
    10     1     2   ar
    11     2     3   ar
    12     3     4   ar
    13     4     5   ar
    14     5     6   ar
    15     6     7   ar
    16     7    23    1
    17    23    24   ar
    18    24    25   ar
    19    25    26   ar
    20    26    29    1
    21    29    30    1
    22    29    31    2
    23    26    27   ar
    24    27    28   ar
    25     7     8   ar
    26     8     9   ar
    27    12    13   ar
    28    13    14   ar
    29    14    15   ar
    30    15    16    1
    31    15    10   ar
    32     9     1   ar
    33     8     4   ar
    34    28    23   ar
