@<TRIPOS>MOLECULE
*****
 26 28 0 0 0
SMALL
GASTEIGER

@<TRIPOS>ATOM
      1 N         137.8615  140.7147  161.4619 N.3     1  UNL1       -0.2700
      2 C         138.7042  141.6749  160.6760 C.3     1  UNL1        0.0897
      3 C         139.0159  143.0311  161.2359 C.3     1  UNL1        0.0897
      4 N         138.4848  143.4271  162.5817 N.3     1  UNL1       -0.2700
      5 C         137.6421  142.4669  163.3676 C.3     1  UNL1        0.0897
      6 C         137.3304  141.1107  162.8077 C.3     1  UNL1        0.0897
      7 C         137.5497  139.3584  160.9020 C.3     1  UNL1        0.0769
      8 C         137.7425  138.1352  161.7485 C.3     1  UNL1        0.0438
      9 C         141.6030  137.8256  162.6149 C.ar    1  UNL1        0.1384
     10 C         141.5438  137.6001  164.0966 C.ar    1  UNL1        0.0369
     11 C         140.2174  137.5529  164.7957 C.ar    1  UNL1        0.0028
     12 C         138.9504  137.7313  164.0130 C.ar    1  UNL1       -0.0040
     13 C         139.0096  137.9568  162.5312 C.ar    1  UNL1       -0.0178
     14 C         140.3359  138.0039  161.8322 C.ar    1  UNL1        0.0327
     15 O         142.9293  137.8727  161.9159 O.3     1  UNL1       -0.4724
     16 C         144.0358  138.7248  162.4633 C.3     1  UNL1        0.2434
     17 F         145.2209  141.0323  162.3180 F       1  UNL1       -0.2302
     18 C         143.9612  140.2182  162.3445 C.3     1  UNL1        0.2403
     19 C         138.7966  144.7834  163.1416 C.3     1  UNL1        0.0769
     20 C         139.6285  144.9090  164.3834 C.3     1  UNL1        0.0437
     21 C         141.0717  144.5007  164.3638 C.ar    1  UNL1       -0.0208
     22 C         142.0958  145.3955  163.7309 C.ar    1  UNL1       -0.0042
     23 C         143.5390  144.9872  163.7112 C.ar    1  UNL1       -0.0003
     24 C         143.9581  143.6840  164.3245 C.ar    1  UNL1       -0.0000
     25 C         142.9341  142.7892  164.9573 C.ar    1  UNL1       -0.0003
     26 C         141.4908  143.1975  164.9770 C.ar    1  UNL1       -0.0042
@<TRIPOS>BOND
     1    17    18    1
     2    18    16    1
     3    16    15    1
     4    15     9    1
     5     9    10   ar
     6    10    11   ar
     7    11    12   ar
     8    12    13   ar
     9    13     8    1
    10     8     7    1
    11     7     1    1
    12     1     2    1
    13     2     3    1
    14     3     4    1
    15     4    19    1
    16    19    20    1
    17    20    21    1
    18    21    22   ar
    19    22    23   ar
    20    23    24   ar
    21    24    25   ar
    22    25    26   ar
    23     4     5    1
    24     5     6    1
    25    13    14   ar
    26    14     9   ar
    27     6     1    1
    28    26    21   ar
@<TRIPOS>MOLECULE
*****
 26 28 0 0 0
SMALL
GASTEIGER

@<TRIPOS>ATOM
      1 N         143.6004  139.6675  164.1855 N.3     1  UNL1       -0.2700
      2 C         142.9561  139.7556  165.5371 C.3     1  UNL1        0.0897
      3 C         141.4661  139.6409  165.6665 C.3     1  UNL1        0.0897
      4 N         140.6205  139.4382  164.4443 N.3     1  UNL1       -0.2700
      5 C         141.2649  139.3501  163.0926 C.3     1  UNL1        0.0897
      6 C         142.7548  139.4648  162.9632 C.3     1  UNL1        0.0897
      7 C         145.0905  139.7822  164.0560 C.3     1  UNL1        0.0769
      8 C         145.7265  141.1292  163.8801 C.3     1  UNL1        0.0438
      9 C         143.4616  143.9141  162.1876 C.ar    1  UNL1        0.1384
     10 C         143.1514  144.7841  163.3695 C.ar    1  UNL1        0.0369
     11 C         143.6996  144.4358  164.7216 C.ar    1  UNL1        0.0028
     12 C         144.5580  143.2176  164.8918 C.ar    1  UNL1       -0.0040
     13 C         144.8681  142.3476  163.7099 C.ar    1  UNL1       -0.0178
     14 C         144.3199  142.6958  162.3578 C.ar    1  UNL1        0.0327
     15 O         142.9134  144.2624  160.8355 O.3     1  UNL1       -0.4724
     16 C         141.8487  143.4073  160.2149 C.3     1  UNL1        0.2434
     17 F         140.6649  142.4108  162.3020 F       1  UNL1       -0.2302
     18 C         140.5910  143.1060  160.9748 C.3     1  UNL1        0.2403
     19 C         139.1304  139.3235  164.5737 C.3     1  UNL1        0.0769
     20 C         138.3523  140.4036  165.2650 C.3     1  UNL1        0.0437
     21 C         138.5046  141.8317  164.8322 C.ar    1  UNL1       -0.0208
     22 C         139.5433  142.7032  165.4739 C.ar    1  UNL1       -0.0042
     23 C         139.6955  144.1313  165.0411 C.ar    1  UNL1       -0.0003
     24 C         138.8091  144.6879  163.9667 C.ar    1  UNL1       -0.0000
     25 C         137.7704  143.8165  163.3251 C.ar    1  UNL1       -0.0003
     26 C         137.6181  142.3883  163.7578 C.ar    1  UNL1       -0.0042
@<TRIPOS>BOND
     1    17    18    1
     2    18    16    1
     3    16    15    1
     4    15     9    1
     5     9    10   ar
     6    10    11   ar
     7    11    12   ar
     8    12    13   ar
     9    13     8    1
    10     8     7    1
    11     7     1    1
    12     1     2    1
    13     2     3    1
    14     3     4    1
    15     4    19    1
    16    19    20    1
    17    20    21    1
    18    21    22   ar
    19    22    23   ar
    20    23    24   ar
    21    24    25   ar
    22    25    26   ar
    23     4     5    1
    24     5     6    1
    25    13    14   ar
    26    14     9   ar
    27     6     1    1
    28    26    21   ar
@<TRIPOS>MOLECULE
*****
 26 28 0 0 0
SMALL
GASTEIGER

@<TRIPOS>ATOM
      1 N         144.1715  140.6739  163.5255 N.3     1  UNL1       -0.2700
      2 C         143.8322  139.4413  164.3102 C.3     1  UNL1        0.0897
      3 C         142.8392  138.4567  163.7677 C.3     1  UNL1        0.0897
      4 N         142.1854  138.7046  162.4407 N.3     1  UNL1       -0.2700
      5 C         142.5246  139.9371  161.6560 C.3     1  UNL1        0.0897
      6 C         143.5177  140.9218  162.1984 C.3     1  UNL1        0.0897
      7 C         145.1646  141.6586  164.0679 C.3     1  UNL1        0.0769
      8 C         144.6996  142.7965  164.9276 C.3     1  UNL1        0.0438
      9 C         140.9163  143.9715  164.6908 C.ar    1  UNL1        0.1384
     10 C         140.3244  143.2613  165.8719 C.ar    1  UNL1        0.0369
     11 C         141.1909  142.3961  166.7383 C.ar    1  UNL1        0.0028
     12 C         142.6493  142.2412  166.4236 C.ar    1  UNL1       -0.0040
     13 C         143.2412  142.9514  165.2424 C.ar    1  UNL1       -0.0178
     14 C         142.3747  143.8166  164.3760 C.ar    1  UNL1        0.0327
     15 O         140.0498  144.8367  163.8244 O.3     1  UNL1       -0.4724
     16 C         139.0802  144.2082  162.8679 C.3     1  UNL1        0.2434
     17 F         137.3066  143.7084  164.6995 F       1  UNL1       -0.2302
     18 C         137.6487  144.0131  163.2711 C.3     1  UNL1        0.2403
     19 C         141.1923  137.7198  161.8983 C.3     1  UNL1        0.0769
     20 C         139.7222  137.9810  162.0416 C.3     1  UNL1        0.0437
     21 C         139.1774  138.5122  163.3342 C.ar    1  UNL1       -0.0208
     22 C         139.0659  137.6107  164.5280 C.ar    1  UNL1       -0.0042
     23 C         138.5211  138.1419  165.8206 C.ar    1  UNL1       -0.0003
     24 C         138.0878  139.5746  165.9196 C.ar    1  UNL1       -0.0000
     25 C         138.1993  140.4760  164.7259 C.ar    1  UNL1       -0.0003
     26 C         138.7441  139.9448  163.4332 C.ar    1  UNL1       -0.0042
@<TRIPOS>BOND
     1    17    18    1
     2    18    16    1
     3    16    15    1
     4    15     9    1
     5     9    10   ar
     6    10    11   ar
     7    11    12   ar
     8    12    13   ar
     9    13     8    1
    10     8     7    1
    11     7     1    1
    12     1     2    1
    13     2     3    1
    14     3     4    1
    15     4    19    1
    16    19    20    1
    17    20    21    1
    18    21    22   ar
    19    22    23   ar
    20    23    24   ar
    21    24    25   ar
    22    25    26   ar
    23     4     5    1
    24     5     6    1
    25    13    14   ar
    26    14     9   ar
    27     6     1    1
    28    26    21   ar
@<TRIPOS>MOLECULE
*****
 26 28 0 0 0
SMALL
GASTEIGER

@<TRIPOS>ATOM
      1 N         139.1620  139.3640  163.3911 N.3     1  UNL1       -0.2700
      2 C         139.5026  140.2471  162.2275 C.3     1  UNL1        0.0897
      3 C         139.3253  141.7326  162.3361 C.3     1  UNL1        0.0897
      4 N         138.8073  142.3350  163.6085 N.3     1  UNL1       -0.2700
      5 C         138.4667  141.4519  164.7721 C.3     1  UNL1        0.0897
      6 C         138.6441  139.9664  164.6634 C.3     1  UNL1        0.0897
      7 C         139.3394  137.8785  163.2825 C.3     1  UNL1        0.0769
      8 C         140.7139  137.2959  163.1367 C.3     1  UNL1        0.0438
      9 C         143.2607  138.6100  165.8821 C.ar    1  UNL1        0.1384
     10 C         144.2419  139.3540  165.0255 C.ar    1  UNL1        0.0369
     11 C         144.0470  139.4120  163.5394 C.ar    1  UNL1        0.0028
     12 C         142.8711  138.7260  162.9098 C.ar    1  UNL1       -0.0040
     13 C         141.8899  137.9820  163.7663 C.ar    1  UNL1       -0.0178
     14 C         142.0847  137.9240  165.2525 C.ar    1  UNL1        0.0327
     15 O         143.4555  138.5520  167.3683 O.3     1  UNL1       -0.4724
     16 C         142.6302  139.4239  168.2675 C.3     1  UNL1        0.2434
     17 F         143.2979  141.9319  168.1486 F       1  UNL1       -0.2302
     18 C         142.3165  140.8339  167.8633 C.3     1  UNL1        0.2403
     19 C         138.6299  143.8205  163.7171 C.3     1  UNL1        0.0769
     20 C         139.5996  144.6348  164.5213 C.3     1  UNL1        0.0437
     21 C         141.0736  144.3885  164.3922 C.ar    1  UNL1       -0.0208
     22 C         141.9275  145.3412  163.6090 C.ar    1  UNL1       -0.0042
     23 C         143.4014  145.0949  163.4800 C.ar    1  UNL1       -0.0003
     24 C         144.0216  143.8960  164.1340 C.ar    1  UNL1       -0.0000
     25 C         143.1678  142.9433  164.9172 C.ar    1  UNL1       -0.0003
     26 C         141.6937  143.1895  165.0463 C.ar    1  UNL1       -0.0042
@<TRIPOS>BOND
     1    17    18    1
     2    18    16    1
     3    16    15    1
     4    15     9    1
     5     9    10   ar
     6    10    11   ar
     7    11    12   ar
     8    12    13   ar
     9    13     8    1
    10     8     7    1
    11     7     1    1
    12     1     2    1
    13     2     3    1
    14     3     4    1
    15     4    19    1
    16    19    20    1
    17    20    21    1
    18    21    22   ar
    19    22    23   ar
    20    23    24   ar
    21    24    25   ar
    22    25    26   ar
    23     4     5    1
    24     5     6    1
    25    13    14   ar
    26    14     9   ar
    27     6     1    1
    28    26    21   ar
@<TRIPOS>MOLECULE
*****
 26 28 0 0 0
SMALL
GASTEIGER

@<TRIPOS>ATOM
      1 N         142.2272  143.7582  163.5593 N.3     1  UNL1       -0.2700
      2 C         142.0792  142.9376  162.3125 C.3     1  UNL1        0.0897
      3 C         140.7198  142.4818  161.8717 C.3     1  UNL1        0.0897
      4 N         139.5085  142.8465  162.6778 N.3     1  UNL1       -0.2700
      5 C         139.6566  143.6671  163.9247 C.3     1  UNL1        0.0897
      6 C         141.0160  144.1230  164.3654 C.3     1  UNL1        0.0897
      7 C         143.5867  144.2141  164.0001 C.3     1  UNL1        0.0769
      8 C         144.3696  143.3961  164.9838 C.3     1  UNL1        0.0438
      9 C         142.7479  140.0458  166.3607 C.ar    1  UNL1        0.1384
     10 C         143.4463  139.0238  165.5136 C.ar    1  UNL1        0.0369
     11 C         144.4525  139.4592  164.4899 C.ar    1  UNL1        0.0028
     12 C         144.7603  140.9166  164.3133 C.ar    1  UNL1       -0.0040
     13 C         144.0619  141.9386  165.1604 C.ar    1  UNL1       -0.0178
     14 C         143.0556  141.5032  166.1841 C.ar    1  UNL1        0.0327
     15 O         141.7416  139.6104  167.3844 O.3     1  UNL1       -0.4724
     16 C         140.9257  140.6341  168.1167 C.3     1  UNL1        0.2434
     17 F         138.5767  139.8206  168.8720 F       1  UNL1       -0.2302
     18 C         139.9874  140.2060  169.2059 C.3     1  UNL1        0.2403
     19 C         138.1491  142.3906  162.2370 C.3     1  UNL1        0.0769
     20 C         137.3354  141.4936  163.1220 C.3     1  UNL1        0.0437
     21 C         137.9339  140.2279  163.6605 C.ar    1  UNL1       -0.0208
     22 C         138.2863  139.1083  162.7265 C.ar    1  UNL1       -0.0042
     23 C         138.8847  137.8427  163.2650 C.ar    1  UNL1       -0.0003
     24 C         139.1308  137.6966  164.7375 C.ar    1  UNL1       -0.0000
     25 C         138.7784  138.8162  165.6714 C.ar    1  UNL1       -0.0003
     26 C         138.1799  140.0819  165.1329 C.ar    1  UNL1       -0.0042
@<TRIPOS>BOND
     1    17    18    1
     2    18    16    1
     3    16    15    1
     4    15     9    1
     5     9    10   ar
     6    10    11   ar
     7    11    12   ar
     8    12    13   ar
     9    13     8    1
    10     8     7    1
    11     7     1    1
    12     1     2    1
    13     2     3    1
    14     3     4    1
    15     4    19    1
    16    19    20    1
    17    20    21    1
    18    21    22   ar
    19    22    23   ar
    20    23    24   ar
    21    24    25   ar
    22    25    26   ar
    23     4     5    1
    24     5     6    1
    25    13    14   ar
    26    14     9   ar
    27     6     1    1
    28    26    21   ar
@<TRIPOS>MOLECULE
*****
 26 28 0 0 0
SMALL
GASTEIGER

@<TRIPOS>ATOM
      1 N         139.2489  143.1604  162.7789 N.3     1  UNL1       -0.2700
      2 C         139.4793  143.8946  164.0665 C.3     1  UNL1        0.0897
      3 C         140.8554  144.3758  164.4195 C.3     1  UNL1        0.0897
      4 N         142.0011  144.1229  163.4849 N.3     1  UNL1       -0.2700
      5 C         141.7707  143.3888  162.1973 C.3     1  UNL1        0.0897
      6 C         140.3946  142.9075  161.8444 C.3     1  UNL1        0.0897
      7 C         137.8727  142.6791  162.4259 C.3     1  UNL1        0.0769
      8 C         137.2723  141.5183  163.1620 C.3     1  UNL1        0.0438
      9 C         139.7344  138.4067  163.2415 C.ar    1  UNL1        0.1384
     10 C         139.9197  138.2295  164.7194 C.ar    1  UNL1        0.0369
     11 C         139.2225  139.1486  165.6782 C.ar    1  UNL1        0.0028
     12 C         138.3401  140.2448  165.1591 C.ar    1  UNL1       -0.0040
     13 C         138.1548  140.4220  163.6812 C.ar    1  UNL1       -0.0178
     14 C         138.8520  139.5029  162.7224 C.ar    1  UNL1        0.0327
     15 O         140.4316  137.4877  162.2827 O.3     1  UNL1       -0.4724
     16 C         141.9057  137.6303  162.0445 C.3     1  UNL1        0.2434
     17 F         142.2709  140.1873  162.3250 F       1  UNL1       -0.2302
     18 C         142.4609  138.9269  161.5341 C.3     1  UNL1        0.2403
     19 C         143.3773  144.6042  163.8380 C.3     1  UNL1        0.0769
     20 C         144.2046  143.8461  164.8334 C.3     1  UNL1        0.0437
     21 C         144.1654  142.3468  164.8542 C.ar    1  UNL1       -0.0208
     22 C         145.1709  141.5592  164.0675 C.ar    1  UNL1       -0.0042
     23 C         145.1317  140.0599  164.0883 C.ar    1  UNL1       -0.0003
     24 C         144.0870  139.3481  164.8958 C.ar    1  UNL1       -0.0000
     25 C         143.0815  140.1356  165.6824 C.ar    1  UNL1       -0.0003
     26 C         143.1207  141.6350  165.6616 C.ar    1  UNL1       -0.0042
@<TRIPOS>BOND
     1    17    18    1
     2    18    16    1
     3    16    15    1
     4    15     9    1
     5     9    10   ar
     6    10    11   ar
     7    11    12   ar
     8    12    13   ar
     9    13     8    1
    10     8     7    1
    11     7     1    1
    12     1     2    1
    13     2     3    1
    14     3     4    1
    15     4    19    1
    16    19    20    1
    17    20    21    1
    18    21    22   ar
    19    22    23   ar
    20    23    24   ar
    21    24    25   ar
    22    25    26   ar
    23     4     5    1
    24     5     6    1
    25    13    14   ar
    26    14     9   ar
    27     6     1    1
    28    26    21   ar
@<TRIPOS>MOLECULE
*****
 26 28 0 0 0
SMALL
GASTEIGER

@<TRIPOS>ATOM
      1 N         139.1927  143.0524  162.8312 N.3     1  UNL1       -0.2700
      2 C         140.3213  142.8020  161.8755 C.3     1  UNL1        0.0897
      3 C         141.6964  143.3131  162.1884 C.3     1  UNL1        0.0897
      4 N         141.9428  144.0746  163.4570 N.3     1  UNL1       -0.2700
      5 C         140.8142  144.3250  164.4128 C.3     1  UNL1        0.0897
      6 C         139.4392  143.8139  164.0999 C.3     1  UNL1        0.0897
      7 C         137.8175  142.5414  162.5184 C.3     1  UNL1        0.0769
      8 C         137.6191  141.1020  162.1459 C.3     1  UNL1        0.0438
      9 C         138.5144  139.1761  165.4984 C.ar    1  UNL1        0.1384
     10 C         138.9485  137.8472  164.9547 C.ar    1  UNL1        0.0369
     11 C         138.9394  137.6033  163.4747 C.ar    1  UNL1        0.0028
     12 C         138.4963  138.6882  162.5384 C.ar    1  UNL1       -0.0040
     13 C         138.0622  140.0170  163.0822 C.ar    1  UNL1       -0.0178
     14 C         138.0713  140.2610  164.5622 C.ar    1  UNL1        0.0327
     15 O         138.5235  139.4200  166.9784 O.3     1  UNL1       -0.4724
     16 C         139.6966  140.1004  167.6192 C.3     1  UNL1        0.2434
     17 F         138.5813  140.6259  169.9062 F       1  UNL1       -0.2302
     18 C         139.7816  140.2001  169.1135 C.3     1  UNL1        0.2403
     19 C         143.3180  144.5856  163.7699 C.3     1  UNL1        0.0769
     20 C         144.1753  143.8680  164.7699 C.3     1  UNL1        0.0437
     21 C         144.1819  142.3687  164.8132 C.ar    1  UNL1       -0.0208
     22 C         145.1989  141.6000  164.0228 C.ar    1  UNL1       -0.0042
     23 C         145.2055  140.1007  164.0661 C.ar    1  UNL1       -0.0003
     24 C         144.1951  139.3700  164.8999 C.ar    1  UNL1       -0.0000
     25 C         143.1781  140.1386  165.6903 C.ar    1  UNL1       -0.0003
     26 C         143.1715  141.6380  165.6470 C.ar    1  UNL1       -0.0042
@<TRIPOS>BOND
     1    17    18    1
     2    18    16    1
     3    16    15    1
     4    15     9    1
     5     9    10   ar
     6    10    11   ar
     7    11    12   ar
     8    12    13   ar
     9    13     8    1
    10     8     7    1
    11     7     1    1
    12     1     2    1
    13     2     3    1
    14     3     4    1
    15     4    19    1
    16    19    20    1
    17    20    21    1
    18    21    22   ar
    19    22    23   ar
    20    23    24   ar
    21    24    25   ar
    22    25    26   ar
    23     4     5    1
    24     5     6    1
    25    13    14   ar
    26    14     9   ar
    27     6     1    1
    28    26    21   ar
@<TRIPOS>MOLECULE
*****
 26 28 0 0 0
SMALL
GASTEIGER

@<TRIPOS>ATOM
      1 N         143.1484  143.3068  163.6302 N.3     1  UNL1       -0.2700
      2 C         143.3151  142.2022  162.6292 C.3     1  UNL1        0.0897
      3 C         143.5866  140.8025  163.0952 C.3     1  UNL1        0.0897
      4 N         143.6915  140.5075  164.5622 N.3     1  UNL1       -0.2700
      5 C         143.5248  141.6122  165.5631 C.3     1  UNL1        0.0897
      6 C         143.2532  143.0118  165.0971 C.3     1  UNL1        0.0897
      7 C         142.8768  144.7066  163.1642 C.3     1  UNL1        0.0769
      8 C         141.6793  145.4491  163.6783 C.3     1  UNL1        0.0438
      9 C         138.4966  143.5695  162.2334 C.ar    1  UNL1        0.1384
     10 C         137.5945  143.5772  163.4318 C.ar    1  UNL1        0.0369
     11 C         138.0540  144.2088  164.7124 C.ar    1  UNL1        0.0028
     12 C         139.4156  144.8328  164.7946 C.ar    1  UNL1       -0.0040
     13 C         140.3176  144.8251  163.5962 C.ar    1  UNL1       -0.0178
     14 C         139.8581  144.1935  162.3156 C.ar    1  UNL1        0.0327
     15 O         138.0371  142.9379  160.9528 O.3     1  UNL1       -0.4724
     16 C         138.9753  142.0733  160.1641 C.3     1  UNL1        0.2434
     17 F         140.2055  140.8759  162.1143 F       1  UNL1       -0.2302
     18 C         139.5340  140.8219  160.7740 C.3     1  UNL1        0.2403
     19 C         143.9630  139.1078  165.0282 C.3     1  UNL1        0.0769
     20 C         142.8483  138.2736  165.5863 C.3     1  UNL1        0.0437
     21 C         141.5187  138.2380  164.8930 C.ar    1  UNL1       -0.0208
     22 C         141.3743  137.5192  163.5843 C.ar    1  UNL1       -0.0042
     23 C         140.0446  137.4835  162.8909 C.ar    1  UNL1       -0.0003
     24 C         138.8594  138.1666  163.5062 C.ar    1  UNL1       -0.0000
     25 C         139.0038  138.8854  164.8148 C.ar    1  UNL1       -0.0003
     26 C         140.3334  138.9210  165.5082 C.ar    1  UNL1       -0.0042
@<TRIPOS>BOND
     1    17    18    1
     2    18    16    1
     3    16    15    1
     4    15     9    1
     5     9    10   ar
     6    10    11   ar
     7    11    12   ar
     8    12    13   ar
     9    13     8    1
    10     8     7    1
    11     7     1    1
    12     1     2    1
    13     2     3    1
    14     3     4    1
    15     4    19    1
    16    19    20    1
    17    20    21    1
    18    21    22   ar
    19    22    23   ar
    20    23    24   ar
    21    24    25   ar
    22    25    26   ar
    23     4     5    1
    24     5     6    1
    25    13    14   ar
    26    14     9   ar
    27     6     1    1
    28    26    21   ar
@<TRIPOS>MOLECULE
*****
 26 28 0 0 0
SMALL
GASTEIGER

@<TRIPOS>ATOM
      1 N         138.9653  141.6063  164.2643 N.3     1  UNL1       -0.2700
      2 C         139.0222  142.7796  165.1971 C.3     1  UNL1        0.0897
      3 C         139.8806  143.9631  164.8620 C.3     1  UNL1        0.0897
      4 N         140.6822  143.9733  163.5942 N.3     1  UNL1       -0.2700
      5 C         140.6254  142.8000  162.6615 C.3     1  UNL1        0.0897
      6 C         139.7669  141.6165  162.9965 C.3     1  UNL1        0.0897
      7 C         138.1069  140.4227  164.5994 C.3     1  UNL1        0.0769
      8 C         138.6690  139.2947  165.4127 C.3     1  UNL1        0.0438
      9 C         140.6769  140.3145  168.6805 C.ar    1  UNL1        0.1384
     10 C         142.0862  140.0461  168.2426 C.ar    1  UNL1        0.0369
     11 C         142.3564  139.5272  166.8614 C.ar    1  UNL1        0.0028
     12 C         141.2174  139.2767  165.9181 C.ar    1  UNL1       -0.0040
     13 C         139.8081  139.5452  166.3560 C.ar    1  UNL1       -0.0178
     14 C         139.5379  140.0641  167.7372 C.ar    1  UNL1        0.0327
     15 O         140.4066  140.8335  170.0617 O.3     1  UNL1       -0.4724
     16 C         139.8908  142.2292  170.2509 C.3     1  UNL1        0.2434
     17 F         140.3302  144.7775  170.0001 F       1  UNL1       -0.2302
     18 C         140.5311  143.3711  169.5187 C.3     1  UNL1        0.2403
     19 C         141.5407  145.1569  163.2592 C.3     1  UNL1        0.0769
     20 C         142.9906  145.1646  163.6436 C.3     1  UNL1        0.0437
     21 C         143.7996  143.9056  163.5436 C.ar    1  UNL1       -0.0208
     22 C         143.9864  143.0361  164.7517 C.ar    1  UNL1       -0.0042
     23 C         144.7954  141.7770  164.6517 C.ar    1  UNL1       -0.0003
     24 C         145.4178  141.3873  163.3437 C.ar    1  UNL1       -0.0000
     25 C         145.2311  142.2567  162.1357 C.ar    1  UNL1       -0.0003
     26 C         144.4220  143.5158  162.2357 C.ar    1  UNL1       -0.0042
@<TRIPOS>BOND
     1    17    18    1
     2    18    16    1
     3    16    15    1
     4    15     9    1
     5     9    10   ar
     6    10    11   ar
     7    11    12   ar
     8    12    13   ar
     9    13     8    1
    10     8     7    1
    11     7     1    1
    12     1     2    1
    13     2     3    1
    14     3     4    1
    15     4    19    1
    16    19    20    1
    17    20    21    1
    18    21    22   ar
    19    22    23   ar
    20    23    24   ar
    21    24    25   ar
    22    25    26   ar
    23     4     5    1
    24     5     6    1
    25    13    14   ar
    26    14     9   ar
    27     6     1    1
    28    26    21   ar
