@<TRIPOS>MOLECULE
*****
 38 40 0 0 0
SMALL
GASTEIGER

@<TRIPOS>ATOM
      1 N         142.0198  143.0350  161.2684 N.3     1  UNL1       -0.2664
      2 C         143.4934  143.2201  161.4787 C.3     1  UNL1        0.1058
      3 C         143.9922  143.9504  162.6903 C.3     1  UNL1        0.1700
      4 O         144.0364  145.4497  162.6970 O.3     1  UNL1       -0.3793
      5 H         143.7103  145.7866  161.8478 H       1  UNL1        0.2106
      6 C         144.4467  143.1813  163.8953 C.3     1  UNL1        0.2358
      7 O         144.1099  141.7256  164.0268 O.3     1  UNL1       -0.4728
      8 C         141.3307  140.3446  167.2854 C.ar    1  UNL1        0.0646
      9 C         141.2962  141.7718  166.8251 C.ar    1  UNL1        0.0190
     10 C         142.2226  142.2321  165.7389 C.ar    1  UNL1        0.0382
     11 C         143.1835  141.2653  165.1130 C.ar    1  UNL1        0.1388
     12 C         143.2180  139.8381  165.5733 C.ar    1  UNL1        0.0382
     13 C         142.2916  139.3777  166.6595 C.ar    1  UNL1        0.0190
     14 N         140.4043  139.8843  168.3716 N.pl3   1  UNL1       -0.2187
     15 H         139.6666  139.2674  168.1608 H       1  UNL1        0.1734
     16 C         140.7994  140.8434  171.1866 C.3     1  UNL1        0.1996
     17 S         140.6019  140.3638  169.7791 S.O2    1  UNL1        0.0558
     18 O         139.2950  141.0970  169.7127 O.2     1  UNL1       -0.1544
     19 O         141.9088  139.6307  169.8454 O.2     1  UNL1       -0.1544
     20 C         141.4793  141.6871  160.8931 C.3     1  UNL1        0.0772
     21 C         142.0376  140.4505  161.5327 C.3     1  UNL1        0.0437
     22 C         141.2103  139.6752  162.5149 C.ar    1  UNL1       -0.0199
     23 C         141.4648  138.2111  162.7190 C.ar    1  UNL1       -0.0033
     24 C         140.6375  137.4359  163.7011 C.ar    1  UNL1        0.0119
     25 C         139.5557  138.1248  164.4791 C.ar    1  UNL1        0.0682
     26 CL        138.7284  137.3495  165.4612 Cl      1  UNL1       -0.0814
     27 C         139.3012  139.5889  164.2749 C.ar    1  UNL1        0.0679
     28 CL        138.2194  140.2777  165.0529 Cl      1  UNL1       -0.0814
     29 C         140.1285  140.3641  163.2928 C.ar    1  UNL1        0.0080
     30 C         141.0867  144.1979  161.4334 C.3     1  UNL1        0.1022
     31 C         140.0097  144.1531  162.4765 C.ar    1  UNL1        0.0276
     32 C         138.7333  143.4133  162.2053 C.ar    1  UNL1        0.0001
     33 C         137.6563  143.3685  163.2484 C.ar    1  UNL1       -0.0001
     34 C         137.8556  144.0635  164.5626 C.ar    1  UNL1        0.0031
     35 C         139.1320  144.8033  164.8338 C.ar    1  UNL1        0.0363
     36 C         140.2090  144.8481  163.7907 C.ar    1  UNL1        0.1309
     37 O         141.4854  145.5879  164.0618 O.3     1  UNL1       -0.5058
     38 H         141.6099  146.0220  164.8828 H       1  UNL1        0.2922
@<TRIPOS>BOND
     1    16    17    1
     2    17    18    2
     3    17    19    2
     4    17    14    1
     5    14     8    1
     6     8     9   ar
     7     9    10   ar
     8    10    11   ar
     9    11     7    1
    10     7     6    1
    11     6     3    1
    12     3     4    1
    13     3     2    1
    14     2     1    1
    15     1    20    1
    16    20    21    1
    17    21    22    1
    18    22    23   ar
    19    23    24   ar
    20    24    25   ar
    21    25    26    1
    22    25    27   ar
    23    27    28    1
    24    27    29   ar
    25     1    30    1
    26    30    31    1
    27    31    32   ar
    28    32    33   ar
    29    33    34   ar
    30    34    35   ar
    31    35    36   ar
    32    36    37    1
    33    11    12   ar
    34    12    13   ar
    35    13     8   ar
    36    29    22   ar
    37    36    31   ar
    38    14    15    1
    39     4     5    1
    40    37    38    1
@<TRIPOS>MOLECULE
*****
 38 40 0 0 0
SMALL
GASTEIGER

@<TRIPOS>ATOM
      1 N         139.9354  141.9283  160.7605 N.3     1  UNL1       -0.2664
      2 C         138.4440  141.8976  160.9184 C.3     1  UNL1        0.1058
      3 C         137.7972  142.6061  162.0716 C.3     1  UNL1        0.1700
      4 O         137.6526  144.0989  162.0490 O.3     1  UNL1       -0.3793
      5 H         138.0258  144.4474  161.2243 H       1  UNL1        0.2106
      6 C         137.2951  141.8217  163.2475 C.3     1  UNL1        0.2358
      7 O         137.9684  140.5388  163.6359 O.3     1  UNL1       -0.4728
      8 C         139.5357  139.9971  167.8192 C.ar    1  UNL1        0.0646
      9 C         140.0352  141.1296  166.9719 C.ar    1  UNL1        0.0190
     10 C         139.5127  141.3102  165.5775 C.ar    1  UNL1        0.0382
     11 C         138.4908  140.3582  165.0303 C.ar    1  UNL1        0.1388
     12 C         137.9914  139.2257  165.8776 C.ar    1  UNL1        0.0382
     13 C         138.5138  139.0452  167.2720 C.ar    1  UNL1        0.0190
     14 N         140.0582  139.8166  169.2136 N.pl3   1  UNL1       -0.2187
     15 H         140.2329  138.9120  169.5606 H       1  UNL1        0.1734
     16 C         140.5708  142.2121  170.9454 C.3     1  UNL1        0.1996
     17 S         140.3145  141.0143  170.0795 S.O2    1  UNL1        0.0558
     18 O         138.8396  141.1654  170.3071 O.2     1  UNL1       -0.1544
     19 O         141.7894  140.8633  169.8518 O.2     1  UNL1       -0.1544
     20 C         140.7023  140.6459  160.6292 C.3     1  UNL1        0.0772
     21 C         140.3453  139.4675  161.4859 C.3     1  UNL1        0.0437
     22 C         141.0867  139.2190  162.7661 C.ar    1  UNL1       -0.0199
     23 C         140.8013  137.9857  163.5707 C.ar    1  UNL1       -0.0033
     24 C         141.5427  137.7372  164.8508 C.ar    1  UNL1        0.0119
     25 C         142.5693  138.7220  165.3262 C.ar    1  UNL1        0.0682
     26 CL        143.3106  138.4735  166.6064 Cl      1  UNL1       -0.0814
     27 C         142.8546  139.9554  164.5216 C.ar    1  UNL1        0.0679
     28 CL        143.8813  140.9402  164.9971 Cl      1  UNL1       -0.0814
     29 C         142.1133  140.2039  163.2416 C.ar    1  UNL1        0.0080
     30 C         140.6598  143.2416  160.7337 C.3     1  UNL1        0.1022
     31 C         141.5858  143.6102  161.8547 C.ar    1  UNL1        0.0276
     32 C         141.0369  143.8694  163.2265 C.ar    1  UNL1        0.0001
     33 C         141.9629  144.2380  164.3475 C.ar    1  UNL1       -0.0001
     34 C         143.4378  144.3475  164.0967 C.ar    1  UNL1        0.0031
     35 C         143.9866  144.0884  162.7250 C.ar    1  UNL1        0.0363
     36 C         143.0606  143.7197  161.6040 C.ar    1  UNL1        0.1309
     37 O         143.6094  143.4606  160.2324 O.3     1  UNL1       -0.5058
     38 H         144.5307  143.5290  160.0757 H       1  UNL1        0.2922
@<TRIPOS>BOND
     1    16    17    1
     2    17    18    2
     3    17    19    2
     4    17    14    1
     5    14     8    1
     6     8     9   ar
     7     9    10   ar
     8    10    11   ar
     9    11     7    1
    10     7     6    1
    11     6     3    1
    12     3     4    1
    13     3     2    1
    14     2     1    1
    15     1    20    1
    16    20    21    1
    17    21    22    1
    18    22    23   ar
    19    23    24   ar
    20    24    25   ar
    21    25    26    1
    22    25    27   ar
    23    27    28    1
    24    27    29   ar
    25     1    30    1
    26    30    31    1
    27    31    32   ar
    28    32    33   ar
    29    33    34   ar
    30    34    35   ar
    31    35    36   ar
    32    36    37    1
    33    11    12   ar
    34    12    13   ar
    35    13     8   ar
    36    29    22   ar
    37    36    31   ar
    38    14    15    1
    39     4     5    1
    40    37    38    1
@<TRIPOS>MOLECULE
*****
 38 40 0 0 0
SMALL
GASTEIGER

@<TRIPOS>ATOM
      1 N         138.7911  139.3219  164.5387 N.3     1  UNL1       -0.2664
      2 C         138.7672  137.9467  163.9401 C.3     1  UNL1        0.1058
      3 C         139.7686  137.5687  162.8891 C.3     1  UNL1        0.1700
      4 O         139.3739  137.5702  161.4420 O.3     1  UNL1       -0.3793
      5 H         138.4449  137.8372  161.3605 H       1  UNL1        0.2106
      6 C         141.1647  137.1892  163.2854 C.3     1  UNL1        0.2358
      7 O         142.3192  137.5431  162.3957 O.3     1  UNL1       -0.4728
      8 C         144.2127  141.6155  162.6796 C.ar    1  UNL1        0.0646
      9 C         142.9243  141.4379  161.9324 C.ar    1  UNL1        0.0190
     10 C         142.2931  140.0804  161.8378 C.ar    1  UNL1        0.0382
     11 C         142.9504  138.9006  162.4903 C.ar    1  UNL1        0.1388
     12 C         144.2389  139.0782  163.2375 C.ar    1  UNL1        0.0382
     13 C         144.8700  140.4356  163.3321 C.ar    1  UNL1        0.0190
     14 N         144.8439  142.9729  162.7742 N.pl3   1  UNL1       -0.2187
     15 H         145.7690  143.1083  162.4656 H       1  UNL1        0.1734
     16 C         143.2874  145.2755  163.9037 C.3     1  UNL1        0.1996
     17 S         144.0657  144.1242  163.3389 S.O2    1  UNL1        0.0558
     18 O         143.8070  144.6302  161.9508 O.2     1  UNL1       -0.1544
     19 O         144.3244  143.6181  164.7270 O.2     1  UNL1       -0.1544
     20 C         138.1320  139.5753  165.8620 C.3     1  UNL1        0.0772
     21 C         138.7902  139.1137  167.1284 C.3     1  UNL1        0.0437
     22 C         139.6168  140.0702  167.9358 C.ar    1  UNL1       -0.0199
     23 C         139.1974  140.4321  169.3298 C.ar    1  UNL1       -0.0033
     24 C         140.0240  141.3886  170.1371 C.ar    1  UNL1        0.0119
     25 C         141.2700  141.9831  169.5505 C.ar    1  UNL1        0.0682
     26 CL        142.0966  142.9396  170.3580 Cl      1  UNL1       -0.0814
     27 C         141.6894  141.6212  168.1566 C.ar    1  UNL1        0.0679
     28 CL        142.9353  142.2158  167.5700 Cl      1  UNL1       -0.0814
     29 C         140.8628  140.6648  167.3492 C.ar    1  UNL1        0.0080
     30 C         139.4740  140.4436  163.8138 C.3     1  UNL1        0.1022
     31 C         139.1409  141.8669  164.1504 C.ar    1  UNL1        0.0276
     32 C         140.1829  142.7570  164.7602 C.ar    1  UNL1        0.0001
     33 C         139.8497  144.1803  165.0968 C.ar    1  UNL1       -0.0001
     34 C         138.4745  144.7134  164.8236 C.ar    1  UNL1        0.0031
     35 C         137.4325  143.8233  164.2138 C.ar    1  UNL1        0.0363
     36 C         137.7657  142.4000  163.8772 C.ar    1  UNL1        0.1309
     37 O         136.7237  141.5099  163.2674 O.3     1  UNL1       -0.5058
     38 H         135.8647  141.8429  163.0967 H       1  UNL1        0.2922
@<TRIPOS>BOND
     1    16    17    1
     2    17    18    2
     3    17    19    2
     4    17    14    1
     5    14     8    1
     6     8     9   ar
     7     9    10   ar
     8    10    11   ar
     9    11     7    1
    10     7     6    1
    11     6     3    1
    12     3     4    1
    13     3     2    1
    14     2     1    1
    15     1    20    1
    16    20    21    1
    17    21    22    1
    18    22    23   ar
    19    23    24   ar
    20    24    25   ar
    21    25    26    1
    22    25    27   ar
    23    27    28    1
    24    27    29   ar
    25     1    30    1
    26    30    31    1
    27    31    32   ar
    28    32    33   ar
    29    33    34   ar
    30    34    35   ar
    31    35    36   ar
    32    36    37    1
    33    11    12   ar
    34    12    13   ar
    35    13     8   ar
    36    29    22   ar
    37    36    31   ar
    38    14    15    1
    39     4     5    1
    40    37    38    1
@<TRIPOS>MOLECULE
*****
 38 40 0 0 0
SMALL
GASTEIGER

@<TRIPOS>ATOM
      1 N         139.4619  139.2748  164.5623 N.3     1  UNL1       -0.2664
      2 C         138.9654  138.1499  163.7032 C.3     1  UNL1        0.1058
      3 C         139.7644  137.7054  162.5139 C.3     1  UNL1        0.1700
      4 O         140.9455  136.7997  162.6999 O.3     1  UNL1       -0.3793
      5 H         141.0535  136.5986  163.6427 H       1  UNL1        0.2106
      6 C         139.3821  138.1666  161.1387 C.3     1  UNL1        0.2358
      7 O         140.3031  139.0628  160.3652 O.3     1  UNL1       -0.4728
      8 C         143.2423  141.6856  162.5405 C.ar    1  UNL1        0.0646
      9 C         141.8032  142.0962  162.4384 C.ar    1  UNL1        0.0190
     10 C         140.8235  141.2219  161.7133 C.ar    1  UNL1        0.0382
     11 C         141.2829  139.9371  161.0903 C.ar    1  UNL1        0.1388
     12 C         142.7219  139.5265  161.1924 C.ar    1  UNL1        0.0382
     13 C         143.7016  140.4008  161.9175 C.ar    1  UNL1        0.0190
     14 N         144.2220  142.5599  163.2656 N.pl3   1  UNL1       -0.2187
     15 H         145.1002  142.2015  163.5295 H       1  UNL1        0.1734
     16 C         143.5055  145.4005  163.9118 C.3     1  UNL1        0.1996
     17 S         143.8638  143.9802  163.5887 S.O2    1  UNL1        0.0558
     18 O         143.4454  143.5612  164.9668 O.2     1  UNL1       -0.1544
     19 O         144.2821  144.3992  162.2105 O.2     1  UNL1       -0.1544
     20 C         140.9290  139.4132  164.8426 C.3     1  UNL1        0.0772
     21 C         141.4614  139.1201  166.2140 C.3     1  UNL1        0.0437
     22 C         141.5791  140.2226  167.2243 C.ar    1  UNL1       -0.0199
     23 C         142.7956  141.1000  167.2386 C.ar    1  UNL1       -0.0033
     24 C         142.9133  142.2024  168.2489 C.ar    1  UNL1        0.0119
     25 C         141.8145  142.4275  169.2449 C.ar    1  UNL1        0.0682
     26 CL        141.9323  143.5300  170.2552 Cl      1  UNL1       -0.0814
     27 C         140.5981  141.5501  169.2306 C.ar    1  UNL1        0.0679
     28 CL        139.4993  141.7751  170.2266 Cl      1  UNL1       -0.0814
     29 C         140.4804  140.4476  168.2203 C.ar    1  UNL1        0.0080
     30 C         138.4914  140.2612  165.1410 C.3     1  UNL1        0.1022
     31 C         138.5606  141.7050  164.7400 C.ar    1  UNL1        0.0276
     32 C         139.5440  142.6218  165.4052 C.ar    1  UNL1        0.0001
     33 C         139.6133  144.0656  165.0042 C.ar    1  UNL1       -0.0001
     34 C         138.6990  144.5925  163.9381 C.ar    1  UNL1        0.0031
     35 C         137.7156  143.6757  163.2730 C.ar    1  UNL1        0.0363
     36 C         137.6464  142.2320  163.6740 C.ar    1  UNL1        0.1309
     37 O         136.6630  141.3152  163.0089 O.3     1  UNL1       -0.5058
     38 H         136.0919  141.6443  162.3429 H       1  UNL1        0.2922
@<TRIPOS>BOND
     1    16    17    1
     2    17    18    2
     3    17    19    2
     4    17    14    1
     5    14     8    1
     6     8     9   ar
     7     9    10   ar
     8    10    11   ar
     9    11     7    1
    10     7     6    1
    11     6     3    1
    12     3     4    1
    13     3     2    1
    14     2     1    1
    15     1    20    1
    16    20    21    1
    17    21    22    1
    18    22    23   ar
    19    23    24   ar
    20    24    25   ar
    21    25    26    1
    22    25    27   ar
    23    27    28    1
    24    27    29   ar
    25     1    30    1
    26    30    31    1
    27    31    32   ar
    28    32    33   ar
    29    33    34   ar
    30    34    35   ar
    31    35    36   ar
    32    36    37    1
    33    11    12   ar
    34    12    13   ar
    35    13     8   ar
    36    29    22   ar
    37    36    31   ar
    38    14    15    1
    39     4     5    1
    40    37    38    1
@<TRIPOS>MOLECULE
*****
 38 40 0 0 0
SMALL
GASTEIGER

@<TRIPOS>ATOM
      1 N         139.4440  138.7600  164.6531 N.3     1  UNL1       -0.2664
      2 C         140.4098  137.6167  164.5531 C.3     1  UNL1        0.1058
      3 C         141.5570  137.6860  163.5891 C.3     1  UNL1        0.1700
      4 O         141.4796  136.9618  162.2779 O.3     1  UNL1       -0.3793
      5 H         140.6281  136.5019  162.2123 H       1  UNL1        0.2106
      6 C         142.7815  138.4796  163.9365 C.3     1  UNL1        0.2358
      7 O         143.9288  138.5488  162.9727 O.3     1  UNL1       -0.4728
      8 C         144.1018  141.8446  159.9136 C.ar    1  UNL1        0.0646
      9 C         143.5385  140.5051  159.5418 C.ar    1  UNL1        0.0190
     10 C         143.4809  139.4065  160.5615 C.ar    1  UNL1        0.0382
     11 C         143.9865  139.6474  161.9530 C.ar    1  UNL1        0.1388
     12 C         144.5497  140.9870  162.3248 C.ar    1  UNL1        0.0382
     13 C         144.6074  142.0856  161.3051 C.ar    1  UNL1        0.0190
     14 N         144.1595  142.9432  158.8940 N.pl3   1  UNL1       -0.2187
     15 H         145.0299  143.2982  158.6015 H       1  UNL1        0.1734
     16 C         141.6223  144.0588  157.7457 C.3     1  UNL1        0.1996
     17 S         142.8909  143.5010  158.3199 S.O2    1  UNL1        0.0558
     18 O         143.1677  142.7972  157.0245 O.2     1  UNL1       -0.1544
     19 O         142.6141  144.2048  159.6152 O.2     1  UNL1       -0.1544
     20 C         139.2771  139.4893  165.9531 C.3     1  UNL1        0.0772
     21 C         140.3883  140.3487  166.4790 C.3     1  UNL1        0.0437
     22 C         140.7453  141.6256  165.7775 C.ar    1  UNL1       -0.0199
     23 C         142.1427  141.8409  165.2767 C.ar    1  UNL1       -0.0033
     24 C         142.4995  143.1178  164.5752 C.ar    1  UNL1        0.0119
     25 C         141.4590  144.1794  164.3744 C.ar    1  UNL1        0.0682
     26 CL        141.8159  145.4563  163.6729 Cl      1  UNL1       -0.0814
     27 C         140.0616  143.9641  164.8752 C.ar    1  UNL1        0.0679
     28 CL        139.0210  145.0257  164.6745 Cl      1  UNL1       -0.0814
     29 C         139.7047  142.6872  165.5768 C.ar    1  UNL1        0.0080
     30 C         138.6451  139.1740  163.4528 C.3     1  UNL1        0.1022
     31 C         138.9680  140.4551  162.7425 C.ar    1  UNL1        0.0276
     32 C         140.3469  140.6837  162.1979 C.ar    1  UNL1        0.0001
     33 C         140.6698  141.9648  161.4875 C.ar    1  UNL1       -0.0001
     34 C         139.6138  143.0172  161.3217 C.ar    1  UNL1        0.0031
     35 C         138.2351  142.7885  161.8663 C.ar    1  UNL1        0.0363
     36 C         137.9121  141.5075  162.5767 C.ar    1  UNL1        0.1309
     37 O         136.5334  141.2788  163.1213 O.3     1  UNL1       -0.5058
     38 H         135.8738  141.9362  163.0177 H       1  UNL1        0.2922
@<TRIPOS>BOND
     1    16    17    1
     2    17    18    2
     3    17    19    2
     4    17    14    1
     5    14     8    1
     6     8     9   ar
     7     9    10   ar
     8    10    11   ar
     9    11     7    1
    10     7     6    1
    11     6     3    1
    12     3     4    1
    13     3     2    1
    14     2     1    1
    15     1    20    1
    16    20    21    1
    17    21    22    1
    18    22    23   ar
    19    23    24   ar
    20    24    25   ar
    21    25    26    1
    22    25    27   ar
    23    27    28    1
    24    27    29   ar
    25     1    30    1
    26    30    31    1
    27    31    32   ar
    28    32    33   ar
    29    33    34   ar
    30    34    35   ar
    31    35    36   ar
    32    36    37    1
    33    11    12   ar
    34    12    13   ar
    35    13     8   ar
    36    29    22   ar
    37    36    31   ar
    38    14    15    1
    39     4     5    1
    40    37    38    1
@<TRIPOS>MOLECULE
*****
 38 40 0 0 0
SMALL
GASTEIGER

@<TRIPOS>ATOM
      1 N         140.6417  139.9010  160.2014 N.3     1  UNL1       -0.2664
      2 C         142.1249  139.9176  159.9779 C.3     1  UNL1        0.1058
      3 C         143.0589  140.0047  161.1485 C.3     1  UNL1        0.1700
      4 O         144.3469  139.2362  161.1391 O.3     1  UNL1       -0.3793
      5 H         144.4205  138.7386  160.3096 H       1  UNL1        0.2106
      6 C         142.7047  140.8605  162.3284 C.3     1  UNL1        0.2358
      7 O         143.2846  140.5548  163.6776 O.3     1  UNL1       -0.4728
      8 C         140.6226  140.4736  167.3049 C.ar    1  UNL1        0.0646
      9 C         140.1996  141.2305  166.0810 C.ar    1  UNL1        0.0190
     10 C         141.0869  141.2575  164.8719 C.ar    1  UNL1        0.0382
     11 C         142.3972  140.5277  164.8867 C.ar    1  UNL1        0.1388
     12 C         142.8203  139.7708  166.1106 C.ar    1  UNL1        0.0382
     13 C         141.9329  139.7437  167.3197 C.ar    1  UNL1        0.0190
     14 N         139.7353  140.4465  168.5140 N.pl3   1  UNL1       -0.2187
     15 H         138.8054  140.1330  168.4352 H       1  UNL1        0.1734
     16 C         140.7943  141.3478  171.1723 C.3     1  UNL1        0.1996
     17 S         140.2647  140.8971  169.8431 S.O2    1  UNL1        0.0558
     18 O         140.3447  142.3057  169.3337 O.2     1  UNL1       -0.1544
     19 O         140.1848  139.4885  170.3525 O.2     1  UNL1       -0.1544
     20 C         139.8357  141.1463  159.9786 C.3     1  UNL1        0.0772
     21 C         138.5819  141.3794  160.7682 C.3     1  UNL1        0.0437
     22 C         138.6036  142.2929  161.9578 C.ar    1  UNL1       -0.0199
     23 C         137.5289  142.1935  162.9995 C.ar    1  UNL1       -0.0033
     24 C         137.5507  143.1070  164.1890 C.ar    1  UNL1        0.0119
     25 C         138.6471  144.1199  164.3369 C.ar    1  UNL1        0.0682
     26 CL        138.6689  145.0334  165.5265 Cl      1  UNL1       -0.0814
     27 C         139.7218  144.2193  163.2952 C.ar    1  UNL1        0.0679
     28 CL        140.8183  145.2322  163.4430 Cl      1  UNL1       -0.0814
     29 C         139.7000  143.3058  162.1057 C.ar    1  UNL1        0.0080
     30 C         139.9646  138.6391  160.6477 C.3     1  UNL1        0.1022
     31 C         139.9432  138.2736  162.1024 C.ar    1  UNL1        0.0276
     32 C         138.7943  138.7019  162.9665 C.ar    1  UNL1        0.0001
     33 C         138.7729  138.3364  164.4211 C.ar    1  UNL1       -0.0001
     34 C         139.9004  137.5425  165.0116 C.ar    1  UNL1        0.0031
     35 C         141.0492  137.1143  164.1475 C.ar    1  UNL1        0.0363
     36 C         141.0706  137.4798  162.6929 C.ar    1  UNL1        0.1309
     37 O         142.2194  137.0515  161.8288 O.3     1  UNL1       -0.5058
     38 H         142.9237  136.5556  162.1976 H       1  UNL1        0.2922
@<TRIPOS>BOND
     1    16    17    1
     2    17    18    2
     3    17    19    2
     4    17    14    1
     5    14     8    1
     6     8     9   ar
     7     9    10   ar
     8    10    11   ar
     9    11     7    1
    10     7     6    1
    11     6     3    1
    12     3     4    1
    13     3     2    1
    14     2     1    1
    15     1    20    1
    16    20    21    1
    17    21    22    1
    18    22    23   ar
    19    23    24   ar
    20    24    25   ar
    21    25    26    1
    22    25    27   ar
    23    27    28    1
    24    27    29   ar
    25     1    30    1
    26    30    31    1
    27    31    32   ar
    28    32    33   ar
    29    33    34   ar
    30    34    35   ar
    31    35    36   ar
    32    36    37    1
    33    11    12   ar
    34    12    13   ar
    35    13     8   ar
    36    29    22   ar
    37    36    31   ar
    38    14    15    1
    39     4     5    1
    40    37    38    1
@<TRIPOS>MOLECULE
*****
 38 40 0 0 0
SMALL
GASTEIGER

@<TRIPOS>ATOM
      1 N         141.2650  143.0263  160.8970 N.3     1  UNL1       -0.2664
      2 C         142.7505  143.0825  161.0969 C.3     1  UNL1        0.1058
      3 C         143.3175  143.7151  162.3332 C.3     1  UNL1        0.1700
      4 O         143.3497  145.2090  162.4641 O.3     1  UNL1       -0.3793
      5 H         142.9687  145.6116  161.6680 H       1  UNL1        0.2106
      6 C         143.8524  142.8537  163.4386 C.3     1  UNL1        0.2358
      7 O         143.3159  141.4668  163.6352 O.3     1  UNL1       -0.4728
      8 C         140.8242  140.5108  167.2583 C.ar    1  UNL1        0.0646
      9 C         142.1425  139.8255  167.0527 C.ar    1  UNL1        0.0190
     10 C         142.9731  140.1442  165.8449 C.ar    1  UNL1        0.0382
     11 C         142.4853  141.1481  164.8429 C.ar    1  UNL1        0.1388
     12 C         141.1670  141.8334  165.0486 C.ar    1  UNL1        0.0382
     13 C         140.3364  141.5147  166.2563 C.ar    1  UNL1        0.0190
     14 N         139.9936  140.1921  168.4661 N.pl3   1  UNL1       -0.2187
     15 H         139.1712  139.6593  168.3713 H       1  UNL1        0.1734
     16 C         140.8384  141.1785  171.1704 C.3     1  UNL1        0.1996
     17 S         140.4160  140.6853  169.8182 S.O2    1  UNL1        0.0558
     18 O         140.0090  142.0779  169.4374 O.2     1  UNL1       -0.1544
     19 O         140.8230  139.2927  170.1990 O.2     1  UNL1       -0.1544
     20 C         140.6228  141.7667  160.3960 C.3     1  UNL1        0.0772
     21 C         141.1162  140.4326  160.8722 C.3     1  UNL1        0.0437
     22 C         140.4730  139.7743  162.0567 C.ar    1  UNL1       -0.0199
     23 C         139.1229  140.2291  162.5262 C.ar    1  UNL1       -0.0033
     24 C         138.4798  139.5708  163.7107 C.ar    1  UNL1        0.0119
     25 C         139.1868  138.4577  164.4257 C.ar    1  UNL1        0.0682
     26 CL        138.5436  137.7994  165.6102 Cl      1  UNL1       -0.0814
     27 C         140.5368  138.0028  163.9562 C.ar    1  UNL1        0.0679
     28 CL        141.2437  136.8897  164.6712 Cl      1  UNL1       -0.0814
     29 C         141.1799  138.6611  162.7717 C.ar    1  UNL1        0.0080
     30 C         140.4216  144.2296  161.1982 C.3     1  UNL1        0.1022
     31 C         139.5940  144.2715  162.4486 C.ar    1  UNL1        0.0276
     32 C         140.1591  144.8706  163.7023 C.ar    1  UNL1        0.0001
     33 C         139.3314  144.9124  164.9526 C.ar    1  UNL1       -0.0001
     34 C         137.9387  144.3553  164.9492 C.ar    1  UNL1        0.0031
     35 C         137.3737  143.7562  163.6955 C.ar    1  UNL1        0.0363
     36 C         138.2013  143.7144  162.4452 C.ar    1  UNL1        0.1309
     37 O         137.6363  143.1154  161.1914 O.3     1  UNL1       -0.5058
     38 H         136.7663  142.7673  161.1893 H       1  UNL1        0.2922
@<TRIPOS>BOND
     1    16    17    1
     2    17    18    2
     3    17    19    2
     4    17    14    1
     5    14     8    1
     6     8     9   ar
     7     9    10   ar
     8    10    11   ar
     9    11     7    1
    10     7     6    1
    11     6     3    1
    12     3     4    1
    13     3     2    1
    14     2     1    1
    15     1    20    1
    16    20    21    1
    17    21    22    1
    18    22    23   ar
    19    23    24   ar
    20    24    25   ar
    21    25    26    1
    22    25    27   ar
    23    27    28    1
    24    27    29   ar
    25     1    30    1
    26    30    31    1
    27    31    32   ar
    28    32    33   ar
    29    33    34   ar
    30    34    35   ar
    31    35    36   ar
    32    36    37    1
    33    11    12   ar
    34    12    13   ar
    35    13     8   ar
    36    29    22   ar
    37    36    31   ar
    38    14    15    1
    39     4     5    1
    40    37    38    1
@<TRIPOS>MOLECULE
*****
 38 40 0 0 0
SMALL
GASTEIGER

@<TRIPOS>ATOM
      1 N         139.7154  138.7657  160.5512 N.3     1  UNL1       -0.2664
      2 C         139.3438  139.4055  159.2464 C.3     1  UNL1        0.1058
      3 C         138.1760  140.3445  159.1772 C.3     1  UNL1        0.1700
      4 O         136.7867  139.8324  159.4168 O.3     1  UNL1       -0.3793
      5 H         136.8203  138.8807  159.6015 H       1  UNL1        0.2106
      6 C         138.3977  141.7955  158.8684 C.3     1  UNL1        0.2358
      7 O         138.3865  142.8080  159.9751 O.3     1  UNL1       -0.4728
      8 C         142.2631  144.2211  161.7710 C.ar    1  UNL1        0.0646
      9 C         140.9715  144.4527  162.4976 C.ar    1  UNL1        0.0190
     10 C         139.6793  143.9817  161.8989 C.ar    1  UNL1        0.0382
     11 C         139.6787  143.2790  160.5737 C.ar    1  UNL1        0.1388
     12 C         140.9704  143.0475  159.8471 C.ar    1  UNL1        0.0382
     13 C         142.2626  143.5185  160.4457 C.ar    1  UNL1        0.0190
     14 N         143.5553  144.6921  162.3696 N.pl3   1  UNL1       -0.2187
     15 H         144.1002  145.3634  161.8987 H       1  UNL1        0.1734
     16 C         144.4794  143.5886  165.0018 C.3     1  UNL1        0.1996
     17 S         144.0174  144.1404  163.6856 S.O2    1  UNL1        0.0558
     18 O         144.3509  142.8371  163.0222 O.2     1  UNL1       -0.1544
     19 O         143.6839  145.4436  164.3491 O.2     1  UNL1       -0.1544
     20 C         141.1574  138.6582  160.9501 C.3     1  UNL1        0.0772
     21 C         141.8589  139.8393  161.5526 C.3     1  UNL1        0.0437
     22 C         142.0079  139.9437  163.0416 C.ar    1  UNL1       -0.0199
     23 C         142.6874  138.8465  163.8061 C.ar    1  UNL1       -0.0033
     24 C         142.8364  138.9509  165.2950 C.ar    1  UNL1        0.0119
     25 C         142.3060  140.1525  166.0194 C.ar    1  UNL1        0.0682
     26 CL        142.4551  140.2569  167.5084 Cl      1  UNL1       -0.0814
     27 C         141.6266  141.2497  165.2549 C.ar    1  UNL1        0.0679
     28 CL        141.0961  142.4513  165.9793 Cl      1  UNL1       -0.0814
     29 C         141.4775  141.1453  163.7660 C.ar    1  UNL1        0.0080
     30 C         138.6449  138.2332  161.4571 C.3     1  UNL1        0.1022
     31 C         138.5902  138.6701  162.8911 C.ar    1  UNL1        0.0276
     32 C         139.1681  137.7956  163.9641 C.ar    1  UNL1        0.0001
     33 C         139.1134  138.2325  165.3980 C.ar    1  UNL1       -0.0001
     34 C         138.4807  139.5438  165.7589 C.ar    1  UNL1        0.0031
     35 C         137.9027  140.4182  164.6859 C.ar    1  UNL1        0.0363
     36 C         137.9575  139.9813  163.2520 C.ar    1  UNL1        0.1309
     37 O         137.3796  140.8557  162.1790 O.3     1  UNL1       -0.5058
     38 H         136.9843  141.6748  162.4044 H       1  UNL1        0.2922
@<TRIPOS>BOND
     1    16    17    1
     2    17    18    2
     3    17    19    2
     4    17    14    1
     5    14     8    1
     6     8     9   ar
     7     9    10   ar
     8    10    11   ar
     9    11     7    1
    10     7     6    1
    11     6     3    1
    12     3     4    1
    13     3     2    1
    14     2     1    1
    15     1    20    1
    16    20    21    1
    17    21    22    1
    18    22    23   ar
    19    23    24   ar
    20    24    25   ar
    21    25    26    1
    22    25    27   ar
    23    27    28    1
    24    27    29   ar
    25     1    30    1
    26    30    31    1
    27    31    32   ar
    28    32    33   ar
    29    33    34   ar
    30    34    35   ar
    31    35    36   ar
    32    36    37    1
    33    11    12   ar
    34    12    13   ar
    35    13     8   ar
    36    29    22   ar
    37    36    31   ar
    38    14    15    1
    39     4     5    1
    40    37    38    1
@<TRIPOS>MOLECULE
*****
 38 40 0 0 0
SMALL
GASTEIGER

@<TRIPOS>ATOM
      1 N         140.6211  141.7157  160.9723 N.3     1  UNL1       -0.2664
      2 C         139.7684  142.2912  162.0639 C.3     1  UNL1        0.1058
      3 C         138.2750  142.3010  161.9227 C.3     1  UNL1        0.1700
      4 O         137.6422  142.8679  160.6866 O.3     1  UNL1       -0.3793
      5 H         138.3344  143.1828  160.0843 H       1  UNL1        0.2106
      6 C         137.4145  141.7438  163.0178 C.3     1  UNL1        0.2358
      7 O         137.7349  140.4063  163.6164 O.3     1  UNL1       -0.4728
      8 C         139.5950  140.1591  167.7065 C.ar    1  UNL1        0.0646
      9 C         139.9600  141.2836  166.7833 C.ar    1  UNL1        0.0190
     10 C         139.3400  141.3660  165.4199 C.ar    1  UNL1        0.0382
     11 C         138.3550  140.3239  164.9797 C.ar    1  UNL1        0.1388
     12 C         137.9900  139.1994  165.9029 C.ar    1  UNL1        0.0382
     13 C         138.6100  139.1170  167.2663 C.ar    1  UNL1        0.0190
     14 N         140.2151  140.0767  169.0698 N.pl3   1  UNL1       -0.2187
     15 H         140.6212  139.2337  169.3757 H       1  UNL1        0.1734
     16 C         140.2176  142.4808  170.8644 C.3     1  UNL1        0.1996
     17 S         140.2163  141.2787  169.9671 S.O2    1  UNL1        0.0558
     18 O         141.6681  141.5035  169.6639 O.2     1  UNL1       -0.1544
     19 O         138.7646  141.0540  170.2702 O.2     1  UNL1       -0.1544
     20 C         141.2337  142.6194  159.9437 C.3     1  UNL1        0.0772
     21 C         142.6278  143.1384  160.1363 C.3     1  UNL1        0.0437
     22 C         143.1784  143.3135  161.5206 C.ar    1  UNL1       -0.0199
     23 C         142.6949  144.4416  162.3829 C.ar    1  UNL1       -0.0033
     24 C         143.2455  144.6167  163.7672 C.ar    1  UNL1        0.0119
     25 C         144.2795  143.6636  164.2891 C.ar    1  UNL1        0.0682
     26 CL        144.8301  143.8387  165.6735 Cl      1  UNL1       -0.0814
     27 C         144.7630  142.5355  163.4268 C.ar    1  UNL1        0.0679
     28 CL        145.7971  141.5825  163.9488 Cl      1  UNL1       -0.0814
     29 C         144.2125  142.3605  162.0426 C.ar    1  UNL1        0.0080
     30 C         140.8613  140.2363  160.9092 C.3     1  UNL1        0.1022
     31 C         141.0063  139.4455  162.1755 C.ar    1  UNL1        0.0276
     32 C         141.9855  139.8822  163.2246 C.ar    1  UNL1        0.0001
     33 C         142.1305  139.0914  164.4909 C.ar    1  UNL1       -0.0001
     34 C         141.2963  137.8637  164.7081 C.ar    1  UNL1        0.0031
     35 C         140.3172  137.4270  163.6591 C.ar    1  UNL1        0.0363
     36 C         140.1722  138.2179  162.3928 C.ar    1  UNL1        0.1309
     37 O         139.1930  137.7812  161.3438 O.3     1  UNL1       -0.5058
     38 H         138.6720  137.0143  161.4794 H       1  UNL1        0.2922
@<TRIPOS>BOND
     1    16    17    1
     2    17    18    2
     3    17    19    2
     4    17    14    1
     5    14     8    1
     6     8     9   ar
     7     9    10   ar
     8    10    11   ar
     9    11     7    1
    10     7     6    1
    11     6     3    1
    12     3     4    1
    13     3     2    1
    14     2     1    1
    15     1    20    1
    16    20    21    1
    17    21    22    1
    18    22    23   ar
    19    23    24   ar
    20    24    25   ar
    21    25    26    1
    22    25    27   ar
    23    27    28    1
    24    27    29   ar
    25     1    30    1
    26    30    31    1
    27    31    32   ar
    28    32    33   ar
    29    33    34   ar
    30    34    35   ar
    31    35    36   ar
    32    36    37    1
    33    11    12   ar
    34    12    13   ar
    35    13     8   ar
    36    29    22   ar
    37    36    31   ar
    38    14    15    1
    39     4     5    1
    40    37    38    1
