@<TRIPOS>MOLECULE
*****
 37 42 0 0 0
SMALL
GASTEIGER

@<TRIPOS>ATOM
      1 C         139.7499  139.9554  163.0508 C.ar    1  UNL1       -0.0077
      2 C         140.8982  139.3132  162.3304 C.ar    1  UNL1        0.0159
      3 C         140.7924  139.0178  160.8635 C.ar    1  UNL1        0.0854
      4 N         141.9407  138.3757  160.1431 N.ar    1  UNL1       -0.2136
      5 C         141.8350  138.0803  158.6763 C.ar    1  UNL1        0.2208
      6 N         140.5809  138.4271  157.9300 N.ar    1  UNL1       -0.2120
      7 C         139.4326  139.0693  158.6504 C.ar    1  UNL1        0.1033
      8 C         139.5384  139.3646  160.1172 C.ar    1  UNL1        0.0378
      9 C         138.3901  140.0068  160.8377 C.ar    1  UNL1        0.0141
     10 C         138.4958  140.3022  162.3044 C.ar    1  UNL1        0.0539
     11 CL        137.3475  140.9444  163.0249 Cl      1  UNL1       -0.0826
     12 F         138.5472  138.0704  165.0510 F       1  UNL1       -0.2354
     13 C         139.2543  139.3083  165.5178 C.3     1  UNL1        0.1808
     14 C         139.3600  139.6036  166.9846 C.3     1  UNL1        0.1082
     15 N         140.0670  140.8414  167.4513 N.3     1  UNL1       -0.2671
     16 C         140.6683  141.7839  166.4513 C.3     1  UNL1        0.0727
     17 C         140.5627  141.4885  164.9844 C.3     1  UNL1        0.0245
     18 C         139.8556  140.2507  164.5177 C.3     1  UNL1        0.0586
     19 C         140.1727  141.1368  168.9182 C.3     1  UNL1        0.1228
     20 C         140.2761  140.1208  170.0169 C.3     1  UNL1        0.1610
     21 O         140.3609  140.8561  171.3216 O.3     1  UNL1       -0.3493
     22 C         140.3099  142.3265  171.0292 C.3     1  UNL1        0.1788
     23 C         140.1936  142.4999  169.5438 C.3     1  UNL1        0.2072
     24 F         140.1125  143.8070  168.8125 F       1  UNL1       -0.2330
     25 N         142.9833  137.4381  157.9559 N.pl3   1  UNL1       -0.2794
     26 H         143.9053  137.7295  158.1408 H       1  UNL1        0.1552
     27 C         142.7267  136.3520  156.9536 C.ar    1  UNL1        0.1001
     28 C         142.0927  136.5280  155.6057 C.ar    1  UNL1        0.1372
     29 N         142.0332  135.1839  154.9423 N.ar    1  UNL1       -0.1654
     30 N         142.6306  134.1773  155.8803 N.ar    1  UNL1       -0.2353
     31 C         143.0592  134.8992  157.1233 C.ar    1  UNL1        0.1499
     32 CL        143.7066  134.2774  158.3251 Cl      1  UNL1       -0.0603
     33 C         142.7742  132.7069  155.6208 C.3     1  UNL1        0.1725
     34 C         142.1632  131.3864  155.2558 C.3     1  UNL1        0.0986
     35 C         143.6337  131.4805  155.5364 C.3     1  UNL1        0.2863
     36 F         144.0304  130.0488  155.3296 F       1  UNL1       -0.2022
     37 F         144.9665  132.0718  155.8888 F       1  UNL1       -0.2022
@<TRIPOS>BOND
     1    12    13    1
     2    13    14    1
     3    14    15    1
     4    15    19    1
     5    19    20    1
     6    20    21    1
     7    21    22    1
     8    22    23    1
     9    23    24    1
    10    15    16    1
    11    16    17    1
    12    17    18    1
    13    18     1    1
    14     1     2   ar
    15     2     3   ar
    16     3     4   ar
    17     4     5   ar
    18     5    25    1
    19    25    27    1
    20    27    28   ar
    21    28    29   ar
    22    29    30   ar
    23    30    33    1
    24    33    34    1
    25    34    35    1
    26    35    36    1
    27    35    37    1
    28    30    31   ar
    29    31    32    1
    30     5     6   ar
    31     6     7   ar
    32     7     8   ar
    33     8     9   ar
    34     9    10   ar
    35    10    11    1
    36    18    13    1
    37    10     1   ar
    38    23    19    1
    39     8     3   ar
    40    31    27   ar
    41    35    33    1
    42    25    26    1
@<TRIPOS>MOLECULE
*****
 37 42 0 0 0
SMALL
GASTEIGER

@<TRIPOS>ATOM
      1 C         142.1935  139.7118  163.6073 C.ar    1  UNL1       -0.0077
      2 C         142.7071  140.7739  162.6810 C.ar    1  UNL1        0.0159
      3 C         143.0400  140.4319  161.2589 C.ar    1  UNL1        0.0854
      4 N         143.5536  141.4940  160.3326 N.ar    1  UNL1       -0.2136
      5 C         143.8864  141.1519  158.9106 C.ar    1  UNL1        0.2208
      6 N         143.7056  139.7478  158.4149 N.ar    1  UNL1       -0.2120
      7 C         143.1919  138.6857  159.3412 C.ar    1  UNL1        0.1033
      8 C         142.8591  139.0278  160.7632 C.ar    1  UNL1        0.0378
      9 C         142.3454  137.9657  161.6896 C.ar    1  UNL1        0.0141
     10 C         142.0126  138.3077  163.1116 C.ar    1  UNL1        0.0539
     11 CL        141.4989  137.2456  164.0380 Cl      1  UNL1       -0.0826
     12 F         144.0752  138.9449  165.8143 F       1  UNL1       -0.2354
     13 C         142.8015  139.6704  166.1329 C.3     1  UNL1        0.1808
     14 C         142.4687  140.0124  167.5550 C.3     1  UNL1        0.1082
     15 N         141.1951  140.7378  167.8735 N.3     1  UNL1       -0.2671
     16 C         140.2542  141.1213  166.7700 C.3     1  UNL1        0.0727
     17 C         140.5870  140.7793  165.3480 C.3     1  UNL1        0.0245
     18 C         141.8606  140.0539  165.0294 C.3     1  UNL1        0.0586
     19 C         140.8622  141.0799  169.2956 C.3     1  UNL1        0.1228
     20 C         140.9270  140.1437  170.4659 C.3     1  UNL1        0.1610
     21 O         140.5110  140.9033  171.6907 O.3     1  UNL1       -0.3493
     22 C         140.1892  142.3089  171.2773 C.3     1  UNL1        0.1788
     23 C         140.4063  142.4180  169.7971 C.3     1  UNL1        0.2072
     24 F         140.2030  143.6491  168.9646 F       1  UNL1       -0.2330
     25 N         144.4001  142.2140  157.9842 N.pl3   1  UNL1       -0.2794
     26 H         144.1140  143.1488  158.1002 H       1  UNL1        0.1552
     27 C         145.3499  141.8517  156.8811 C.ar    1  UNL1        0.1001
     28 C         145.0305  141.0038  155.6856 C.ar    1  UNL1        0.1372
     29 N         146.2689  140.9018  154.8455 N.ar    1  UNL1       -0.1654
     30 N         147.3537  141.6867  155.5217 N.ar    1  UNL1       -0.2353
     31 C         146.7857  142.2737  156.7797 C.ar    1  UNL1        0.1499
     32 CL        147.5239  143.1321  157.7637 Cl      1  UNL1       -0.0603
     33 C         148.7597  141.8549  155.0267 C.3     1  UNL1        0.1725
     34 C         150.2372  141.7005  155.2344 C.3     1  UNL1        0.0986
     35 C         149.7174  142.3008  153.9618 C.3     1  UNL1        0.2863
     36 F         151.0117  142.5707  153.2535 F       1  UNL1       -0.2022
     37 F         148.7480  142.8072  152.9352 F       1  UNL1       -0.2022
@<TRIPOS>BOND
     1    12    13    1
     2    13    14    1
     3    14    15    1
     4    15    19    1
     5    19    20    1
     6    20    21    1
     7    21    22    1
     8    22    23    1
     9    23    24    1
    10    15    16    1
    11    16    17    1
    12    17    18    1
    13    18     1    1
    14     1     2   ar
    15     2     3   ar
    16     3     4   ar
    17     4     5   ar
    18     5    25    1
    19    25    27    1
    20    27    28   ar
    21    28    29   ar
    22    29    30   ar
    23    30    33    1
    24    33    34    1
    25    34    35    1
    26    35    36    1
    27    35    37    1
    28    30    31   ar
    29    31    32    1
    30     5     6   ar
    31     6     7   ar
    32     7     8   ar
    33     8     9   ar
    34     9    10   ar
    35    10    11    1
    36    18    13    1
    37    10     1   ar
    38    23    19    1
    39     8     3   ar
    40    31    27   ar
    41    35    33    1
    42    25    26    1
@<TRIPOS>MOLECULE
*****
 37 42 0 0 0
SMALL
GASTEIGER

@<TRIPOS>ATOM
      1 C         142.3169  142.9031  163.2898 C.ar    1  UNL1       -0.0077
      2 C         143.0204  141.8966  162.4284 C.ar    1  UNL1        0.0159
      3 C         143.1838  142.1506  160.9591 C.ar    1  UNL1        0.0854
      4 N         143.8874  141.1442  160.0977 N.ar    1  UNL1       -0.2136
      5 C         144.0508  141.3981  158.6284 C.ar    1  UNL1        0.2208
      6 N         143.5106  142.6586  158.0205 N.ar    1  UNL1       -0.2120
      7 C         142.8070  143.6650  158.8819 C.ar    1  UNL1        0.1033
      8 C         142.6436  143.4110  160.3512 C.ar    1  UNL1        0.0378
      9 C         141.9400  144.4175  161.2127 C.ar    1  UNL1        0.0141
     10 C         141.7767  144.1635  162.6819 C.ar    1  UNL1        0.0539
     11 CL        141.0731  145.1699  163.5434 Cl      1  UNL1       -0.0826
     12 F         144.6939  143.0630  165.1131 F       1  UNL1       -0.2354
     13 C         143.3420  142.7290  165.6708 C.3     1  UNL1        0.1808
     14 C         143.1786  142.4751  167.1400 C.3     1  UNL1        0.1082
     15 N         141.8268  142.1412  167.6976 N.3     1  UNL1       -0.2671
     16 C         140.6383  142.0612  166.7860 C.3     1  UNL1        0.0727
     17 C         140.8016  142.3152  165.3168 C.3     1  UNL1        0.0245
     18 C         142.1535  142.6491  164.7591 C.3     1  UNL1        0.0586
     19 C         141.6634  141.8872  169.1670 C.3     1  UNL1        0.1228
     20 C         142.2165  142.7338  170.2749 C.3     1  UNL1        0.1610
     21 O         141.8132  142.1120  171.5790 O.3     1  UNL1       -0.3493
     22 C         141.0108  140.8810  171.2770 C.3     1  UNL1        0.1788
     23 C         140.9183  140.7422  169.7863 C.3     1  UNL1        0.2072
     24 F         140.2057  139.6500  169.0452 F       1  UNL1       -0.2330
     25 N         144.7544  140.3917  157.7669 N.pl3   1  UNL1       -0.2794
     26 H         144.8877  139.4723  158.0928 H       1  UNL1        0.1552
     27 C         145.2547  140.7861  156.4090 C.ar    1  UNL1        0.1001
     28 C         144.7851  140.2257  155.0992 C.ar    1  UNL1        0.1372
     29 N         145.5527  140.9033  154.0031 N.ar    1  UNL1       -0.1654
     30 N         146.4968  141.8826  154.6353 N.ar    1  UNL1       -0.2353
     31 C         146.3126  141.8101  156.1222 C.ar    1  UNL1        0.1499
     32 CL        147.0559  142.6195  157.1432 Cl      1  UNL1       -0.0603
     33 C         147.4565  142.7772  153.9084 C.3     1  UNL1        0.1725
     34 C         147.7113  143.9284  152.9811 C.3     1  UNL1        0.0986
     35 C         148.8641  143.1756  153.5765 C.3     1  UNL1        0.2863
     36 F         150.0094  143.9260  152.9640 F       1  UNL1       -0.2022
     37 F         149.6190  142.1622  154.3847 F       1  UNL1       -0.2022
@<TRIPOS>BOND
     1    12    13    1
     2    13    14    1
     3    14    15    1
     4    15    19    1
     5    19    20    1
     6    20    21    1
     7    21    22    1
     8    22    23    1
     9    23    24    1
    10    15    16    1
    11    16    17    1
    12    17    18    1
    13    18     1    1
    14     1     2   ar
    15     2     3   ar
    16     3     4   ar
    17     4     5   ar
    18     5    25    1
    19    25    27    1
    20    27    28   ar
    21    28    29   ar
    22    29    30   ar
    23    30    33    1
    24    33    34    1
    25    34    35    1
    26    35    36    1
    27    35    37    1
    28    30    31   ar
    29    31    32    1
    30     5     6   ar
    31     6     7   ar
    32     7     8   ar
    33     8     9   ar
    34     9    10   ar
    35    10    11    1
    36    18    13    1
    37    10     1   ar
    38    23    19    1
    39     8     3   ar
    40    31    27   ar
    41    35    33    1
    42    25    26    1
@<TRIPOS>MOLECULE
*****
 37 42 0 0 0
SMALL
GASTEIGER

@<TRIPOS>ATOM
      1 C         140.5362  139.4491  162.1071 C.ar    1  UNL1       -0.0077
      2 C         141.6524  138.9067  161.2646 C.ar    1  UNL1        0.0159
      3 C         141.3884  138.4890  159.8483 C.ar    1  UNL1        0.0854
      4 N         142.5047  137.9467  159.0058 N.ar    1  UNL1       -0.2136
      5 C         142.2406  137.5290  157.5896 C.ar    1  UNL1        0.2208
      6 N         140.8603  137.6536  157.0158 N.ar    1  UNL1       -0.2120
      7 C         139.7441  138.1959  157.8583 C.ar    1  UNL1        0.1033
      8 C         140.0081  138.6136  159.2745 C.ar    1  UNL1        0.0378
      9 C         138.8918  139.1560  160.1171 C.ar    1  UNL1        0.0141
     10 C         139.1559  139.5737  161.5333 C.ar    1  UNL1        0.0539
     11 CL        138.0396  140.1161  162.3758 Cl      1  UNL1       -0.0826
     12 F         140.0187  137.5335  164.3571 F       1  UNL1       -0.2354
     13 C         140.5415  138.9090  164.6484 C.3     1  UNL1        0.1808
     14 C         140.8054  139.3267  166.0647 C.3     1  UNL1        0.1082
     15 N         141.3282  140.7021  166.3559 N.3     1  UNL1       -0.2671
     16 C         141.5869  141.6599  165.2309 C.3     1  UNL1        0.0727
     17 C         141.3229  141.2422  163.8146 C.3     1  UNL1        0.0245
     18 C         140.8002  139.8668  163.5234 C.3     1  UNL1        0.0586
     19 C         141.5922  141.1198  167.7722 C.3     1  UNL1        0.1228
     20 C         141.2241  142.4382  168.3858 C.3     1  UNL1        0.1610
     21 O         141.6750  142.4257  169.8163 O.3     1  UNL1       -0.3493
     22 C         142.3218  141.0996  170.0869 C.3     1  UNL1        0.1788
     23 C         142.2706  140.2926  168.8235 C.3     1  UNL1        0.2072
     24 F         142.8042  138.9023  168.6433 F       1  UNL1       -0.2330
     25 N         143.3569  136.9866  156.7470 N.pl3   1  UNL1       -0.2794
     26 H         144.1019  137.5724  156.4806 H       1  UNL1        0.1552
     27 C         143.3380  135.5516  156.3105 C.ar    1  UNL1        0.1001
     28 C         143.1310  135.0591  154.9089 C.ar    1  UNL1        0.1372
     29 N         143.1879  133.5603  154.9311 N.ar    1  UNL1       -0.1654
     30 N         143.4300  133.1266  156.3464 N.ar    1  UNL1       -0.2353
     31 C         143.5228  134.3573  157.1989 C.ar    1  UNL1        0.1499
     32 CL        143.7589  134.3881  158.6799 Cl      1  UNL1       -0.0603
     33 C         143.5571  131.7107  156.8252 C.3     1  UNL1        0.1725
     34 C         143.0863  130.2866  156.8086 C.3     1  UNL1        0.0986
     35 C         144.2479  130.6825  157.6710 C.3     1  UNL1        0.2863
     36 F         144.5747  129.3569  158.2923 F       1  UNL1       -0.2022
     37 F         145.2961  131.5388  158.3178 F       1  UNL1       -0.2022
@<TRIPOS>BOND
     1    12    13    1
     2    13    14    1
     3    14    15    1
     4    15    19    1
     5    19    20    1
     6    20    21    1
     7    21    22    1
     8    22    23    1
     9    23    24    1
    10    15    16    1
    11    16    17    1
    12    17    18    1
    13    18     1    1
    14     1     2   ar
    15     2     3   ar
    16     3     4   ar
    17     4     5   ar
    18     5    25    1
    19    25    27    1
    20    27    28   ar
    21    28    29   ar
    22    29    30   ar
    23    30    33    1
    24    33    34    1
    25    34    35    1
    26    35    36    1
    27    35    37    1
    28    30    31   ar
    29    31    32    1
    30     5     6   ar
    31     6     7   ar
    32     7     8   ar
    33     8     9   ar
    34     9    10   ar
    35    10    11    1
    36    18    13    1
    37    10     1   ar
    38    23    19    1
    39     8     3   ar
    40    31    27   ar
    41    35    33    1
    42    25    26    1
@<TRIPOS>MOLECULE
*****
 37 42 0 0 0
SMALL
GASTEIGER

@<TRIPOS>ATOM
      1 C         142.8387  142.0600  163.0388 C.ar    1  UNL1       -0.0077
      2 C         142.3538  141.3445  161.8129 C.ar    1  UNL1        0.0159
      3 C         143.0383  141.5641  160.4963 C.ar    1  UNL1        0.0854
      4 N         142.5534  140.8486  159.2704 N.ar    1  UNL1       -0.2136
      5 C         143.2379  141.0681  157.9539 C.ar    1  UNL1        0.2208
      6 N         144.4073  142.0032  157.8633 N.ar    1  UNL1       -0.2120
      7 C         144.8922  142.7186  159.0892 C.ar    1  UNL1        0.1033
      8 C         144.2077  142.4991  160.4057 C.ar    1  UNL1        0.0378
      9 C         144.6926  143.2146  161.6317 C.ar    1  UNL1        0.0141
     10 C         144.0081  142.9950  162.9482 C.ar    1  UNL1        0.0539
     11 CL        144.4930  143.7105  164.1743 Cl      1  UNL1       -0.0826
     12 F         140.7979  144.0302  164.0153 F       1  UNL1       -0.2354
     13 C         141.1338  142.8256  164.8436 C.3     1  UNL1        0.1808
     14 C         140.4493  142.6061  166.1601 C.3     1  UNL1        0.1082
     15 N         140.7852  141.4015  166.9884 N.3     1  UNL1       -0.2671
     16 C         141.8055  140.4164  166.5002 C.3     1  UNL1        0.0727
     17 C         142.4900  140.6359  165.1837 C.3     1  UNL1        0.0245
     18 C         142.1542  141.8405  164.3554 C.3     1  UNL1        0.0586
     19 C         140.1006  141.1820  168.3050 C.3     1  UNL1        0.1228
     20 C         140.2860  142.0076  169.5436 C.3     1  UNL1        0.1610
     21 O         139.4106  141.4343  170.6182 O.3     1  UNL1       -0.3493
     22 C         138.6842  140.2542  170.0438 C.3     1  UNL1        0.1788
     23 C         139.1107  140.0983  168.6142 C.3     1  UNL1        0.2072
     24 F         138.6313  139.0439  167.6611 F       1  UNL1       -0.2330
     25 N         142.7530  140.3526  156.7279 N.pl3   1  UNL1       -0.2794
     26 H         142.0717  140.7691  156.1520 H       1  UNL1        0.1552
     27 C         143.3061  139.0026  156.3794 C.ar    1  UNL1        0.1001
     28 C         144.5356  138.7377  155.5621 C.ar    1  UNL1        0.1372
     29 N         144.7162  137.2518  155.4646 N.ar    1  UNL1       -0.1654
     30 N         143.5983  136.5983  156.2216 N.ar    1  UNL1       -0.2353
     31 C         142.7268  137.6804  156.7870 C.ar    1  UNL1        0.1499
     32 CL        141.4926  137.4761  157.6147 Cl      1  UNL1       -0.0603
     33 C         143.3886  135.1221  156.3847 C.3     1  UNL1        0.1725
     34 C         143.9006  133.7757  156.8033 C.3     1  UNL1        0.0986
     35 C         142.5135  133.9114  156.2486 C.3     1  UNL1        0.2863
     36 F         142.0662  132.4811  156.3129 F       1  UNL1       -0.2022
     37 F         141.2818  134.5439  155.6716 F       1  UNL1       -0.2022
@<TRIPOS>BOND
     1    12    13    1
     2    13    14    1
     3    14    15    1
     4    15    19    1
     5    19    20    1
     6    20    21    1
     7    21    22    1
     8    22    23    1
     9    23    24    1
    10    15    16    1
    11    16    17    1
    12    17    18    1
    13    18     1    1
    14     1     2   ar
    15     2     3   ar
    16     3     4   ar
    17     4     5   ar
    18     5    25    1
    19    25    27    1
    20    27    28   ar
    21    28    29   ar
    22    29    30   ar
    23    30    33    1
    24    33    34    1
    25    34    35    1
    26    35    36    1
    27    35    37    1
    28    30    31   ar
    29    31    32    1
    30     5     6   ar
    31     6     7   ar
    32     7     8   ar
    33     8     9   ar
    34     9    10   ar
    35    10    11    1
    36    18    13    1
    37    10     1   ar
    38    23    19    1
    39     8     3   ar
    40    31    27   ar
    41    35    33    1
    42    25    26    1
@<TRIPOS>MOLECULE
*****
 37 42 0 0 0
SMALL
GASTEIGER

@<TRIPOS>ATOM
      1 C         141.4631  143.1685  163.2997 C.ar    1  UNL1       -0.0077
      2 C         141.1778  142.0705  162.3185 C.ar    1  UNL1        0.0159
      3 C         141.1029  142.3760  160.8518 C.ar    1  UNL1        0.0854
      4 N         140.8176  141.2779  159.8706 N.ar    1  UNL1       -0.2136
      5 C         140.7428  141.5835  158.4040 C.ar    1  UNL1        0.2208
      6 N         140.9533  142.9870  157.9185 N.ar    1  UNL1       -0.2120
      7 C         141.2387  144.0851  158.8997 C.ar    1  UNL1        0.1033
      8 C         141.3135  143.7796  160.3664 C.ar    1  UNL1        0.0378
      9 C         141.5989  144.8776  161.3476 C.ar    1  UNL1        0.0141
     10 C         141.6737  144.5721  162.8143 C.ar    1  UNL1        0.0539
     11 CL        141.9591  145.6702  163.7956 Cl      1  UNL1       -0.0826
     12 F         139.0297  143.4893  165.0247 F       1  UNL1       -0.2354
     13 C         140.3213  143.0234  165.6289 C.3     1  UNL1        0.1808
     14 C         140.3960  142.7180  167.0955 C.3     1  UNL1        0.1082
     15 N         141.6875  142.2521  167.6996 N.3     1  UNL1       -0.2671
     16 C         142.9042  142.0917  166.8371 C.3     1  UNL1        0.0727
     17 C         142.8294  142.3972  165.3705 C.3     1  UNL1        0.0245
     18 C         141.5380  142.8630  164.7664 C.3     1  UNL1        0.0586
     19 C         141.7623  141.9466  169.1663 C.3     1  UNL1        0.1228
     20 C         141.6765  142.9469  170.2808 C.3     1  UNL1        0.1610
     21 O         141.7972  142.2058  171.5793 O.3     1  UNL1       -0.3493
     22 C         141.9577  140.7473  171.2673 C.3     1  UNL1        0.1788
     23 C         141.9362  140.5872  169.7761 C.3     1  UNL1        0.2072
     24 F         142.0657  139.2946  169.0262 F       1  UNL1       -0.2330
     25 N         140.4574  140.4854  157.4227 N.pl3   1  UNL1       -0.2794
     26 H         139.6198  140.4930  156.9053 H       1  UNL1        0.1552
     27 C         141.4481  139.3758  157.2298 C.ar    1  UNL1        0.1001
     28 C         142.9408  139.5212  157.2038 C.ar    1  UNL1        0.1372
     29 N         143.5353  138.1612  156.9869 N.ar    1  UNL1       -0.1654
     30 N         142.4101  137.1753  156.8789 N.ar    1  UNL1       -0.2353
     31 C         141.1201  137.9259  157.0290 C.ar    1  UNL1        0.1499
     32 CL        139.7438  137.3311  156.9858 Cl      1  UNL1       -0.0603
     33 C         142.5501  135.6981  156.6593 C.3     1  UNL1        0.1725
     34 C         143.2502  134.4028  156.9459 C.3     1  UNL1        0.0986
     35 C         142.0927  134.4347  155.9924 C.3     1  UNL1        0.2863
     36 F         142.0297  132.9855  155.6107 F       1  UNL1       -0.2022
     37 F         140.9570  134.9700  155.1716 F       1  UNL1       -0.2022
@<TRIPOS>BOND
     1    12    13    1
     2    13    14    1
     3    14    15    1
     4    15    19    1
     5    19    20    1
     6    20    21    1
     7    21    22    1
     8    22    23    1
     9    23    24    1
    10    15    16    1
    11    16    17    1
    12    17    18    1
    13    18     1    1
    14     1     2   ar
    15     2     3   ar
    16     3     4   ar
    17     4     5   ar
    18     5    25    1
    19    25    27    1
    20    27    28   ar
    21    28    29   ar
    22    29    30   ar
    23    30    33    1
    24    33    34    1
    25    34    35    1
    26    35    36    1
    27    35    37    1
    28    30    31   ar
    29    31    32    1
    30     5     6   ar
    31     6     7   ar
    32     7     8   ar
    33     8     9   ar
    34     9    10   ar
    35    10    11    1
    36    18    13    1
    37    10     1   ar
    38    23    19    1
    39     8     3   ar
    40    31    27   ar
    41    35    33    1
    42    25    26    1
@<TRIPOS>MOLECULE
*****
 37 42 0 0 0
SMALL
GASTEIGER

@<TRIPOS>ATOM
      1 C         139.9562  139.2581  157.9444 C.ar    1  UNL1       -0.0077
      2 C         139.3635  139.1035  159.3136 C.ar    1  UNL1        0.0159
      3 C         138.8630  140.3079  160.0546 C.ar    1  UNL1        0.0854
      4 N         138.2703  140.1532  161.4238 N.ar    1  UNL1       -0.2136
      5 C         137.7699  141.3576  162.1648 C.ar    1  UNL1        0.2208
      6 N         137.8623  142.7166  161.5366 N.ar    1  UNL1       -0.2120
      7 C         138.4550  142.8712  160.1674 C.ar    1  UNL1        0.1033
      8 C         138.9554  141.6668  159.4264 C.ar    1  UNL1        0.0378
      9 C         139.5481  141.8214  158.0571 C.ar    1  UNL1        0.0141
     10 C         140.0485  140.6171  157.3162 C.ar    1  UNL1        0.0539
     11 CL        140.6413  140.7717  155.9469 Cl      1  UNL1       -0.0826
     12 F         142.6907  138.1691  158.5246 F       1  UNL1       -0.2354
     13 C         141.8239  137.5092  157.4934 C.3     1  UNL1        0.1808
     14 C         142.3243  136.3049  156.7524 C.3     1  UNL1        0.1082
     15 N         141.4575  135.6451  155.7213 N.3     1  UNL1       -0.2671
     16 C         140.0903  136.1896  155.4312 C.3     1  UNL1        0.0727
     17 C         139.5898  137.3939  156.1722 C.3     1  UNL1        0.0245
     18 C         140.4566  138.0537  157.2033 C.3     1  UNL1        0.0586
     19 C         141.9580  134.4407  154.9803 C.3     1  UNL1        0.1228
     20 C         141.9975  134.2761  153.4898 C.3     1  UNL1        0.1610
     21 O         142.5707  132.9232  153.1879 O.3     1  UNL1       -0.3493
     22 C         142.8854  132.2517  154.4918 C.3     1  UNL1        0.1788
     23 C         142.5067  133.1895  155.5995 C.3     1  UNL1        0.2072
     24 F         142.6514  132.9230  157.0685 F       1  UNL1       -0.2330
     25 N         137.1772  141.2030  163.5341 N.pl3   1  UNL1       -0.2794
     26 H         136.2119  141.3402  163.6710 H       1  UNL1        0.1552
     27 C         138.0551  140.8394  164.6947 C.ar    1  UNL1        0.1001
     28 C         138.1050  139.5053  165.3785 C.ar    1  UNL1        0.1372
     29 N         139.1181  139.5874  166.4817 N.ar    1  UNL1       -0.1654
     30 N         139.6943  140.9724  166.4797 N.ar    1  UNL1       -0.2353
     31 C         139.0373  141.7461  165.3753 C.ar    1  UNL1        0.1499
     32 CL        139.3140  143.1756  165.0147 Cl      1  UNL1       -0.0603
     33 C         140.7432  141.4923  167.4175 C.3     1  UNL1        0.1725
     34 C         142.0742  141.3384  168.0919 C.3     1  UNL1        0.0986
     35 C         141.2290  142.5466  168.3673 C.3     1  UNL1        0.2863
     36 F         142.1153  143.2684  169.3387 F       1  UNL1       -0.2022
     37 F         140.0761  143.5042  168.3055 F       1  UNL1       -0.2022
@<TRIPOS>BOND
     1    12    13    1
     2    13    14    1
     3    14    15    1
     4    15    19    1
     5    19    20    1
     6    20    21    1
     7    21    22    1
     8    22    23    1
     9    23    24    1
    10    15    16    1
    11    16    17    1
    12    17    18    1
    13    18     1    1
    14     1     2   ar
    15     2     3   ar
    16     3     4   ar
    17     4     5   ar
    18     5    25    1
    19    25    27    1
    20    27    28   ar
    21    28    29   ar
    22    29    30   ar
    23    30    33    1
    24    33    34    1
    25    34    35    1
    26    35    36    1
    27    35    37    1
    28    30    31   ar
    29    31    32    1
    30     5     6   ar
    31     6     7   ar
    32     7     8   ar
    33     8     9   ar
    34     9    10   ar
    35    10    11    1
    36    18    13    1
    37    10     1   ar
    38    23    19    1
    39     8     3   ar
    40    31    27   ar
    41    35    33    1
    42    25    26    1
@<TRIPOS>MOLECULE
*****
 37 42 0 0 0
SMALL
GASTEIGER

@<TRIPOS>ATOM
      1 C         141.2689  139.5403  161.6217 C.ar    1  UNL1       -0.0077
      2 C         142.0828  138.4967  160.9157 C.ar    1  UNL1        0.0159
      3 C         142.0493  138.4052  159.4188 C.ar    1  UNL1        0.0854
      4 N         142.8632  137.3616  158.7129 N.ar    1  UNL1       -0.2136
      5 C         142.8297  137.2701  157.2161 C.ar    1  UNL1        0.2208
      6 N         141.9824  138.2223  156.4252 N.ar    1  UNL1       -0.2120
      7 C         141.1685  139.2659  157.1312 C.ar    1  UNL1        0.1033
      8 C         141.2020  139.3573  158.6280 C.ar    1  UNL1        0.0378
      9 C         140.3880  140.4009  159.3341 C.ar    1  UNL1        0.0141
     10 C         140.4215  140.4924  160.8309 C.ar    1  UNL1        0.0539
     11 CL        139.6076  141.5360  161.5370 Cl      1  UNL1       -0.0826
     12 F         139.4694  137.7969  163.2716 F       1  UNL1       -0.2354
     13 C         140.4026  138.7601  163.9436 C.3     1  UNL1        0.1808
     14 C         140.4360  138.8515  165.4404 C.3     1  UNL1        0.1082
     15 N         141.3692  139.8147  166.1122 N.3     1  UNL1       -0.2671
     16 C         142.2690  140.6864  165.2872 C.3     1  UNL1        0.0727
     17 C         142.2356  140.5949  163.7904 C.3     1  UNL1        0.0245
     18 C         141.3024  139.6318  163.1186 C.3     1  UNL1        0.0586
     19 C         141.4027  139.9062  167.6091 C.3     1  UNL1        0.1228
     20 C         142.6352  139.9895  168.4600 C.3     1  UNL1        0.1610
     21 O         142.2039  140.0652  169.8946 O.3     1  UNL1       -0.3493
     22 C         140.7047  140.0288  169.9303 C.3     1  UNL1        0.1788
     23 C         140.2096  139.9305  168.5178 C.3     1  UNL1        0.2072
     24 F         138.7735  139.8675  168.0893 F       1  UNL1       -0.2330
     25 N         143.6437  136.2265  156.5100 N.pl3   1  UNL1       -0.2794
     26 H         144.4559  136.4855  156.0176 H       1  UNL1        0.1552
     27 C         143.2200  134.7883  156.5541 C.ar    1  UNL1        0.1001
     28 C         143.5916  133.7917  157.6119 C.ar    1  UNL1        0.1372
     29 N         142.9516  132.4816  157.2598 N.ar    1  UNL1       -0.1654
     30 N         142.1844  132.6684  155.9844 N.ar    1  UNL1       -0.2353
     31 C         142.3503  134.0940  155.5483 C.ar    1  UNL1        0.1499
     32 CL        141.7516  134.7161  154.3218 Cl      1  UNL1       -0.0603
     33 C         141.3908  131.6147  155.2705 C.3     1  UNL1        0.1725
     34 C         140.3303  131.2355  154.2796 C.3     1  UNL1        0.0986
     35 C         141.0764  130.1687  155.0248 C.3     1  UNL1        0.2863
     36 F         140.4243  128.9458  154.4511 F       1  UNL1       -0.2022
     37 F         142.0490  129.5266  155.9692 F       1  UNL1       -0.2022
@<TRIPOS>BOND
     1    12    13    1
     2    13    14    1
     3    14    15    1
     4    15    19    1
     5    19    20    1
     6    20    21    1
     7    21    22    1
     8    22    23    1
     9    23    24    1
    10    15    16    1
    11    16    17    1
    12    17    18    1
    13    18     1    1
    14     1     2   ar
    15     2     3   ar
    16     3     4   ar
    17     4     5   ar
    18     5    25    1
    19    25    27    1
    20    27    28   ar
    21    28    29   ar
    22    29    30   ar
    23    30    33    1
    24    33    34    1
    25    34    35    1
    26    35    36    1
    27    35    37    1
    28    30    31   ar
    29    31    32    1
    30     5     6   ar
    31     6     7   ar
    32     7     8   ar
    33     8     9   ar
    34     9    10   ar
    35    10    11    1
    36    18    13    1
    37    10     1   ar
    38    23    19    1
    39     8     3   ar
    40    31    27   ar
    41    35    33    1
    42    25    26    1
@<TRIPOS>MOLECULE
*****
 37 42 0 0 0
SMALL
GASTEIGER

@<TRIPOS>ATOM
      1 C         140.8920  140.3600  157.6788 C.ar    1  UNL1       -0.0077
      2 C         140.4378  140.6054  159.0871 C.ar    1  UNL1        0.0159
      3 C         140.1751  142.0055  159.5572 C.ar    1  UNL1        0.0854
      4 N         139.7209  142.2509  160.9655 N.ar    1  UNL1       -0.2136
      5 C         139.4582  143.6509  161.4355 C.ar    1  UNL1        0.2208
      6 N         139.6498  144.8055  160.4973 N.ar    1  UNL1       -0.2120
      7 C         140.1041  144.5600  159.0890 C.ar    1  UNL1        0.1033
      8 C         140.3667  143.1600  158.6189 C.ar    1  UNL1        0.0378
      9 C         140.8210  142.9145  157.2106 C.ar    1  UNL1        0.0141
     10 C         141.0836  141.5145  156.7405 C.ar    1  UNL1        0.0539
     11 CL        141.5379  141.2690  155.3322 Cl      1  UNL1       -0.0826
     12 F         143.4754  139.0034  158.3761 F       1  UNL1       -0.2354
     13 C         142.4464  138.2816  157.5573 C.3     1  UNL1        0.1808
     14 C         142.7091  136.8817  157.0873 C.3     1  UNL1        0.1082
     15 N         141.6801  136.1599  156.2686 N.3     1  UNL1       -0.2671
     16 C         140.3884  136.8382  155.9199 C.3     1  UNL1        0.0727
     17 C         140.1257  138.2382  156.3900 C.3     1  UNL1        0.0245
     18 C         141.1547  138.9599  157.2087 C.3     1  UNL1        0.0586
     19 C         141.9428  134.7599  155.7985 C.3     1  UNL1        0.1228
     20 C         141.4783  134.1631  154.5030 C.3     1  UNL1        0.1610
     21 O         141.9644  132.7452  154.4452 O.3     1  UNL1       -0.3493
     22 C         142.7294  132.4658  155.7049 C.3     1  UNL1        0.1788
     23 C         142.7159  133.7109  156.5412 C.3     1  UNL1        0.2072
     24 F         143.3623  133.8776  157.8845 F       1  UNL1       -0.2330
     25 N         139.0039  143.8965  162.8439 N.pl3   1  UNL1       -0.2794
     26 H         138.5477  144.7379  163.0744 H       1  UNL1        0.1552
     27 C         139.2447  142.8599  163.9011 C.ar    1  UNL1        0.1001
     28 C         140.3401  142.8834  164.9256 C.ar    1  UNL1        0.1372
     29 N         140.2048  141.6560  165.7771 N.ar    1  UNL1       -0.1654
     30 N         139.0259  140.8738  165.2788 N.ar    1  UNL1       -0.2353
     31 C         138.4325  141.6179  164.1193 C.ar    1  UNL1        0.1499
     32 CL        137.2369  141.1943  163.3187 Cl      1  UNL1       -0.0603
     33 C         138.5277  139.5755  165.8411 C.3     1  UNL1        0.1725
     34 C         137.7846  138.8194  166.9023 C.3     1  UNL1        0.0986
     35 C         138.4080  138.0828  165.7540 C.3     1  UNL1        0.2863
     36 F         138.0256  136.6764  166.1084 F       1  UNL1       -0.2022
     37 F         139.1642  137.8347  164.4825 F       1  UNL1       -0.2022
@<TRIPOS>BOND
     1    12    13    1
     2    13    14    1
     3    14    15    1
     4    15    19    1
     5    19    20    1
     6    20    21    1
     7    21    22    1
     8    22    23    1
     9    23    24    1
    10    15    16    1
    11    16    17    1
    12    17    18    1
    13    18     1    1
    14     1     2   ar
    15     2     3   ar
    16     3     4   ar
    17     4     5   ar
    18     5    25    1
    19    25    27    1
    20    27    28   ar
    21    28    29   ar
    22    29    30   ar
    23    30    33    1
    24    33    34    1
    25    34    35    1
    26    35    36    1
    27    35    37    1
    28    30    31   ar
    29    31    32    1
    30     5     6   ar
    31     6     7   ar
    32     7     8   ar
    33     8     9   ar
    34     9    10   ar
    35    10    11    1
    36    18    13    1
    37    10     1   ar
    38    23    19    1
    39     8     3   ar
    40    31    27   ar
    41    35    33    1
    42    25    26    1
