@<TRIPOS>MOLECULE
*****
 31 33 0 0 0
SMALL
GASTEIGER

@<TRIPOS>ATOM
      1 C         142.2351  143.6429  161.5284 C.ar    1  UNL1        0.1690
      2 N         141.2825  142.8334  162.3572 N.ar    1  UNL1       -0.2226
      3 C         141.8063  141.7799  163.2878 C.ar    1  UNL1        0.0878
      4 C         143.2828  141.5361  163.3894 C.ar    1  UNL1        0.0628
      5 C         144.0868  140.5736  164.2123 C.ar    1  UNL1        0.0919
      6 C         145.5364  140.7883  163.8921 C.ar    1  UNL1        0.1109
      7 N         145.6283  141.8835  162.8712 N.ar    1  UNL1       -0.2262
      8 C         144.2355  142.3456  162.5606 C.ar    1  UNL1        0.1441
      9 N         143.7116  143.3990  161.6301 N.ar    1  UNL1       -0.3189
     10 H         144.3369  143.9304  161.0861 H       1  UNL1        0.1693
     11 C         140.8535  140.9703  164.1166 C.ar    1  UNL1        0.0315
     12 C         140.1580  139.7847  163.5162 C.ar    1  UNL1        0.0399
     13 C         139.2052  138.9751  164.3450 C.ar    1  UNL1        0.1483
     14 C         138.9481  139.3512  165.7741 C.ar    1  UNL1        0.1031
     15 C         139.6436  140.5368  166.3745 C.ar    1  UNL1        0.0248
     16 C         140.5964  141.3464  165.5457 C.ar    1  UNL1        0.0600
     17 CL        141.2919  142.5321  166.1461 Cl      1  UNL1       -0.0822
     18 O         138.5097  137.7895  163.7446 O.3     1  UNL1       -0.4707
     19 C         138.1766  137.7765  162.2821 C.3     1  UNL1        0.2525
     20 C         137.9953  138.5416  166.6028 C.1     1  UNL1        0.1035
     21 N         137.0425  137.7321  167.4316 N.1     1  UNL1       -0.1907
     22 C         143.5377  139.5722  165.1848 C.1     1  UNL1        0.1021
     23 N         142.9885  138.5708  166.1572 N.1     1  UNL1       -0.1908
     24 S         141.7113  144.6963  160.5978 S.3     1  UNL1       -0.0761
     25 C         140.3194  145.2271  160.7734 C.3     1  UNL1        0.0824
     26 C         139.9111  145.8444  162.0781 C.3     1  UNL1        0.0843
     27 N         139.1160  145.0467  163.0690 N.3     1  UNL1       -0.2719
     28 C         138.5160  144.9685  165.5956 C.3     1  UNL1        0.0188
     29 C         139.5458  144.9920  164.5050 C.3     1  UNL1        0.0722
     30 C         137.8914  144.3038  162.6237 C.3     1  UNL1        0.0722
     31 C         137.8061  142.8180  162.8105 C.3     1  UNL1        0.0188
@<TRIPOS>BOND
     1    28    29    1
     2    29    27    1
     3    27    30    1
     4    30    31    1
     5    27    26    1
     6    26    25    1
     7    25    24    1
     8    24     1    1
     9     1     2   ar
    10     2     3   ar
    11     3    11    1
    12    11    12   ar
    13    12    13   ar
    14    13    18    1
    15    18    19    1
    16    13    14   ar
    17    14    20    1
    18    20    21    3
    19    14    15   ar
    20    15    16   ar
    21    16    17    1
    22     3     4   ar
    23     4     5   ar
    24     5    22    1
    25    22    23    3
    26     5     6   ar
    27     6     7   ar
    28     7     8   ar
    29     8     9   ar
    30     9     1   ar
    31    16    11   ar
    32     8     4    1
    33     9    10    1
@<TRIPOS>MOLECULE
*****
 31 33 0 0 0
SMALL
GASTEIGER

@<TRIPOS>ATOM
      1 C         142.0493  143.4454  161.4688 C.ar    1  UNL1        0.1690
      2 N         141.1092  142.6558  162.3304 N.ar    1  UNL1       -0.2226
      3 C         141.6445  141.6032  163.2555 C.ar    1  UNL1        0.0878
      4 C         143.1199  141.3405  163.3189 C.ar    1  UNL1        0.0628
      5 C         143.9334  140.3743  164.1279 C.ar    1  UNL1        0.0919
      6 C         145.3764  140.5668  163.7662 C.ar    1  UNL1        0.1109
      7 N         145.4546  141.6521  162.7337 N.ar    1  UNL1       -0.2262
      8 C         144.0600  142.1302  162.4572 C.ar    1  UNL1        0.1441
      9 N         143.5247  143.1827  161.5321 N.ar    1  UNL1       -0.3189
     10 H         144.1418  143.7010  160.9666 H       1  UNL1        0.1693
     11 C         140.7042  140.8136  164.1172 C.ar    1  UNL1        0.0315
     12 C         140.5623  141.1465  165.5729 C.ar    1  UNL1        0.0399
     13 C         139.6221  140.3568  166.4346 C.ar    1  UNL1        0.1483
     14 C         138.8239  139.2343  165.8406 C.ar    1  UNL1        0.1031
     15 C         138.9659  138.9014  164.3849 C.ar    1  UNL1        0.0248
     16 C         139.9061  139.6911  163.5232 C.ar    1  UNL1        0.0600
     17 CL        140.0481  139.3582  162.0675 Cl      1  UNL1       -0.0822
     18 O         139.4801  140.6897  167.8903 O.3     1  UNL1       -0.4707
     19 C         140.4327  140.1040  168.8900 C.3     1  UNL1        0.2525
     20 C         137.8837  138.4447  166.7023 C.1     1  UNL1        0.1035
     21 N         136.9436  137.6551  167.5641 N.1     1  UNL1       -0.1907
     22 C         143.3980  139.3886  165.1238 C.1     1  UNL1        0.1021
     23 N         142.8626  138.4029  166.1196 N.1     1  UNL1       -0.1908
     24 S         141.5140  144.4980  160.5436 S.3     1  UNL1       -0.0761
     25 C         140.2290  145.1997  160.8696 C.3     1  UNL1        0.0824
     26 C         139.9993  145.7413  162.2494 C.3     1  UNL1        0.0843
     27 N         139.1459  144.9812  163.2210 N.3     1  UNL1       -0.2719
     28 C         138.5456  144.9736  165.7488 C.3     1  UNL1        0.0188
     29 C         139.5670  144.8626  164.6558 C.3     1  UNL1        0.0722
     30 C         137.8716  144.3398  162.7579 C.3     1  UNL1        0.0722
     31 C         137.7128  142.8500  162.8290 C.3     1  UNL1        0.0188
@<TRIPOS>BOND
     1    28    29    1
     2    29    27    1
     3    27    30    1
     4    30    31    1
     5    27    26    1
     6    26    25    1
     7    25    24    1
     8    24     1    1
     9     1     2   ar
    10     2     3   ar
    11     3    11    1
    12    11    12   ar
    13    12    13   ar
    14    13    18    1
    15    18    19    1
    16    13    14   ar
    17    14    20    1
    18    20    21    3
    19    14    15   ar
    20    15    16   ar
    21    16    17    1
    22     3     4   ar
    23     4     5   ar
    24     5    22    1
    25    22    23    3
    26     5     6   ar
    27     6     7   ar
    28     7     8   ar
    29     8     9   ar
    30     9     1   ar
    31    16    11   ar
    32     8     4    1
    33     9    10    1
@<TRIPOS>MOLECULE
*****
 31 33 0 0 0
SMALL
GASTEIGER

@<TRIPOS>ATOM
      1 C         143.0373  140.1544  162.6572 C.ar    1  UNL1        0.1690
      2 N         142.7930  140.5839  164.0733 N.ar    1  UNL1       -0.2226
      3 C         141.5813  140.0916  164.8080 C.ar    1  UNL1        0.0878
      4 C         140.6141  139.1698  164.1263 C.ar    1  UNL1        0.0628
      5 C         139.3422  138.5261  164.5931 C.ar    1  UNL1        0.0919
      6 C         138.8005  137.6987  163.4653 C.ar    1  UNL1        0.1109
      7 N         139.7376  137.8311  162.3015 N.ar    1  UNL1       -0.2262
      8 C         140.8585  138.7403  162.7101 C.ar    1  UNL1        0.1441
      9 N         142.0701  139.2326  161.9755 N.ar    1  UNL1       -0.3189
     10 H         142.2305  138.9507  161.0459 H       1  UNL1        0.1693
     11 C         141.3370  140.5212  166.2243 C.ar    1  UNL1        0.0315
     12 C         141.7944  139.6549  167.3602 C.ar    1  UNL1        0.0399
     13 C         141.5501  140.0844  168.7765 C.ar    1  UNL1        0.1483
     14 C         140.8485  141.3801  169.0568 C.ar    1  UNL1        0.1031
     15 C         140.3912  142.2465  167.9209 C.ar    1  UNL1        0.0248
     16 C         140.6354  141.8170  166.5046 C.ar    1  UNL1        0.0600
     17 CL        140.1781  142.6833  165.3687 Cl      1  UNL1       -0.0822
     18 O         142.0075  139.2180  169.9124 O.3     1  UNL1       -0.4707
     19 C         143.2086  139.6122  170.7198 C.3     1  UNL1        0.2525
     20 C         140.6043  141.8096  170.4731 C.1     1  UNL1        0.1035
     21 N         140.3601  142.2392  171.8894 N.1     1  UNL1       -0.1907
     22 C         138.7211  138.6823  165.9495 C.1     1  UNL1        0.1021
     23 N         138.0999  138.8385  167.3059 N.1     1  UNL1       -0.1908
     24 S         144.2490  140.6467  161.9225 S.3     1  UNL1       -0.0761
     25 C         145.0307  141.8088  162.4594 C.3     1  UNL1        0.0824
     26 C         144.5895  143.2112  162.1617 C.3     1  UNL1        0.0843
     27 N         143.5936  143.8897  163.0550 N.3     1  UNL1       -0.2719
     28 C         144.2852  143.4598  165.5222 C.3     1  UNL1        0.0188
     29 C         144.0217  144.4128  164.3941 C.3     1  UNL1        0.0722
     30 C         142.1699  144.0451  162.6093 C.3     1  UNL1        0.0722
     31 C         141.3708  145.2347  163.0524 C.3     1  UNL1        0.0188
@<TRIPOS>BOND
     1    28    29    1
     2    29    27    1
     3    27    30    1
     4    30    31    1
     5    27    26    1
     6    26    25    1
     7    25    24    1
     8    24     1    1
     9     1     2   ar
    10     2     3   ar
    11     3    11    1
    12    11    12   ar
    13    12    13   ar
    14    13    18    1
    15    18    19    1
    16    13    14   ar
    17    14    20    1
    18    20    21    3
    19    14    15   ar
    20    15    16   ar
    21    16    17    1
    22     3     4   ar
    23     4     5   ar
    24     5    22    1
    25    22    23    3
    26     5     6   ar
    27     6     7   ar
    28     7     8   ar
    29     8     9   ar
    30     9     1   ar
    31    16    11   ar
    32     8     4    1
    33     9    10    1
@<TRIPOS>MOLECULE
*****
 31 33 0 0 0
SMALL
GASTEIGER

@<TRIPOS>ATOM
      1 C         141.7577  143.1126  162.3056 C.ar    1  UNL1        0.1690
      2 N         141.4596  142.9057  163.7609 N.ar    1  UNL1       -0.2226
      3 C         142.0389  141.7265  164.4850 C.ar    1  UNL1        0.0878
      4 C         142.9162  140.7544  163.7535 C.ar    1  UNL1        0.0628
      5 C         143.6239  139.5092  164.1991 C.ar    1  UNL1        0.0919
      6 C         144.3594  138.9466  163.0191 C.ar    1  UNL1        0.1109
      7 N         144.1063  139.8440  161.8442 N.ar    1  UNL1       -0.2262
      8 C         143.2143  140.9613  162.2980 C.ar    1  UNL1        0.1441
      9 N         142.6351  142.1404  161.5741 N.ar    1  UNL1       -0.3189
     10 H         142.8307  142.2763  160.6188 H       1  UNL1        0.1693
     11 C         141.7407  141.5197  165.9405 C.ar    1  UNL1        0.0315
     12 C         140.5568  140.6966  166.3538 C.ar    1  UNL1        0.0399
     13 C         140.2586  140.4897  167.8093 C.ar    1  UNL1        0.1483
     14 C         141.1444  141.1058  168.8512 C.ar    1  UNL1        0.1031
     15 C         142.3283  141.9289  168.4379 C.ar    1  UNL1        0.0248
     16 C         142.6265  142.1358  166.9824 C.ar    1  UNL1        0.0600
     17 CL        143.8105  142.9588  166.5691 Cl      1  UNL1       -0.0822
     18 O         139.0746  139.6667  168.2227 O.3     1  UNL1       -0.4707
     19 C         138.1871  139.0531  167.1806 C.3     1  UNL1        0.2525
     20 C         140.8461  140.8989  170.3067 C.1     1  UNL1        0.1035
     21 N         140.5480  140.6921  171.7621 N.1     1  UNL1       -0.1907
     22 C         143.6003  138.9286  165.5820 C.1     1  UNL1        0.1021
     23 N         143.5767  138.3480  166.9649 N.1     1  UNL1       -0.1908
     24 S         141.1784  144.2918  161.5815 S.3     1  UNL1       -0.0761
     25 C         140.3795  145.3149  162.3332 C.3     1  UNL1        0.0824
     26 C         138.8826  145.2236  162.3631 C.3     1  UNL1        0.0843
     27 N         138.2147  144.0859  163.0771 N.3     1  UNL1       -0.2719
     28 C         138.8219  144.8392  165.4883 C.3     1  UNL1        0.0188
     29 C         137.8518  144.2197  164.5264 C.3     1  UNL1        0.0722
     30 C         137.9097  142.8146  162.3418 C.3     1  UNL1        0.0722
     31 C         137.4136  141.6145  163.0925 C.3     1  UNL1        0.0188
@<TRIPOS>BOND
     1    28    29    1
     2    29    27    1
     3    27    30    1
     4    30    31    1
     5    27    26    1
     6    26    25    1
     7    25    24    1
     8    24     1    1
     9     1     2   ar
    10     2     3   ar
    11     3    11    1
    12    11    12   ar
    13    12    13   ar
    14    13    18    1
    15    18    19    1
    16    13    14   ar
    17    14    20    1
    18    20    21    3
    19    14    15   ar
    20    15    16   ar
    21    16    17    1
    22     3     4   ar
    23     4     5   ar
    24     5    22    1
    25    22    23    3
    26     5     6   ar
    27     6     7   ar
    28     7     8   ar
    29     8     9   ar
    30     9     1   ar
    31    16    11   ar
    32     8     4    1
    33     9    10    1
@<TRIPOS>MOLECULE
*****
 31 33 0 0 0
SMALL
GASTEIGER

@<TRIPOS>ATOM
      1 C         142.2226  143.6994  162.6187 C.ar    1  UNL1        0.1690
      2 N         141.4750  143.2253  163.8295 N.ar    1  UNL1       -0.2226
      3 C         141.9978  142.0683  164.6284 C.ar    1  UNL1        0.0878
      4 C         143.2683  141.3855  164.2163 C.ar    1  UNL1        0.0628
      5 C         144.0219  140.2288  164.8029 C.ar    1  UNL1        0.0919
      6 C         145.2352  139.9881  163.9545 C.ar    1  UNL1        0.1109
      7 N         145.2315  140.9960  162.8436 N.ar    1  UNL1       -0.2262
      8 C         144.0159  141.8597  163.0054 C.ar    1  UNL1        0.1441
      9 N         143.4930  143.0166  162.2066 N.ar    1  UNL1       -0.3189
     10 H         143.9837  143.3279  161.4119 H       1  UNL1        0.1693
     11 C         141.2501  141.5941  165.8393 C.ar    1  UNL1        0.0315
     12 C         141.4562  142.2725  167.1612 C.ar    1  UNL1        0.0399
     13 C         140.7086  141.7984  168.3721 C.ar    1  UNL1        0.1483
     14 C         139.7549  140.6460  168.2610 C.ar    1  UNL1        0.1031
     15 C         139.5488  139.9676  166.9392 C.ar    1  UNL1        0.0248
     16 C         140.2965  140.4417  165.7283 C.ar    1  UNL1        0.0600
     17 CL        140.0904  139.7633  164.4064 Cl      1  UNL1       -0.0822
     18 O         140.9146  142.4768  169.6939 O.3     1  UNL1       -0.4707
     19 C         140.4694  143.8963  169.8860 C.3     1  UNL1        0.2525
     20 C         139.0073  140.1719  169.4720 C.1     1  UNL1        0.1035
     21 N         138.2596  139.6978  170.6829 N.1     1  UNL1       -0.1907
     22 C         143.6308  139.4496  166.0235 C.1     1  UNL1        0.1021
     23 N         143.2397  138.6704  167.2441 N.1     1  UNL1       -0.1908
     24 S         141.6998  144.8564  161.8198 S.3     1  UNL1       -0.0761
     25 C         140.4933  145.6110  162.2941 C.3     1  UNL1        0.0824
     26 C         139.1329  145.2544  161.7725 C.3     1  UNL1        0.0843
     27 N         138.4096  144.0593  162.3191 N.3     1  UNL1       -0.2719
     28 C         137.7285  142.7844  164.4780 C.3     1  UNL1        0.0188
     29 C         137.8968  144.0730  163.7286 C.3     1  UNL1        0.0722
     30 C         138.1992  142.8506  161.4561 C.3     1  UNL1        0.0722
     31 C         139.3056  141.8533  161.2796 C.3     1  UNL1        0.0188
@<TRIPOS>BOND
     1    28    29    1
     2    29    27    1
     3    27    30    1
     4    30    31    1
     5    27    26    1
     6    26    25    1
     7    25    24    1
     8    24     1    1
     9     1     2   ar
    10     2     3   ar
    11     3    11    1
    12    11    12   ar
    13    12    13   ar
    14    13    18    1
    15    18    19    1
    16    13    14   ar
    17    14    20    1
    18    20    21    3
    19    14    15   ar
    20    15    16   ar
    21    16    17    1
    22     3     4   ar
    23     4     5   ar
    24     5    22    1
    25    22    23    3
    26     5     6   ar
    27     6     7   ar
    28     7     8   ar
    29     8     9   ar
    30     9     1   ar
    31    16    11   ar
    32     8     4    1
    33     9    10    1
@<TRIPOS>MOLECULE
*****
 31 33 0 0 0
SMALL
GASTEIGER

@<TRIPOS>ATOM
      1 C         138.9041  143.6607  162.6717 C.ar    1  UNL1        0.1690
      2 N         139.6053  143.0569  163.8522 N.ar    1  UNL1       -0.2226
      3 C         139.5825  141.5713  164.0590 C.ar    1  UNL1        0.0878
      4 C         138.8584  140.6897  163.0852 C.ar    1  UNL1        0.0628
      5 C         138.6650  139.2032  163.0288 C.ar    1  UNL1        0.0919
      6 C         137.8443  138.8884  161.8134 C.ar    1  UNL1        0.1109
      7 N         137.5304  140.1803  161.1186 N.ar    1  UNL1       -0.2262
      8 C         138.1572  141.2935  161.9046 C.ar    1  UNL1        0.1441
      9 N         138.1801  142.7790  161.6979 N.ar    1  UNL1       -0.3189
     10 H         137.7199  143.1753  160.9231 H       1  UNL1        0.1693
     11 C         140.2837  140.9676  165.2396 C.ar    1  UNL1        0.0315
     12 C         139.5352  140.7362  166.5188 C.ar    1  UNL1        0.0399
     13 C         140.2363  140.1325  167.6994 C.ar    1  UNL1        0.1483
     14 C         141.6860  139.7601  167.6008 C.ar    1  UNL1        0.1031
     15 C         142.4345  139.9914  166.3217 C.ar    1  UNL1        0.0248
     16 C         141.7334  140.5952  165.1411 C.ar    1  UNL1        0.0600
     17 CL        142.4819  140.8265  163.8619 Cl      1  UNL1       -0.0822
     18 O         139.4878  139.9012  168.9785 O.3     1  UNL1       -0.4707
     19 C         139.3803  141.0001  169.9938 C.3     1  UNL1        0.2525
     20 C         142.3871  139.1564  168.7815 C.1     1  UNL1        0.1035
     21 N         143.0882  138.5527  169.9622 N.1     1  UNL1       -0.1907
     22 C         139.1986  138.2067  164.0147 C.1     1  UNL1        0.1021
     23 N         139.7323  137.2101  165.0006 N.1     1  UNL1       -0.1908
     24 S         138.9269  145.1462  162.4650 S.3     1  UNL1       -0.0761
     25 C         140.2110  145.8339  162.1068 C.3     1  UNL1        0.0824
     26 C         141.1749  145.1783  161.1628 C.3     1  UNL1        0.0843
     27 N         142.3448  144.4084  161.7002 N.3     1  UNL1       -0.2719
     28 C         144.0684  144.0190  163.6047 C.3     1  UNL1        0.0188
     29 C         143.0781  144.9063  162.9103 C.3     1  UNL1        0.0722
     30 C         142.7811  143.1408  161.0275 C.3     1  UNL1        0.0722
     31 C         141.7572  142.1527  160.5529 C.3     1  UNL1        0.0188
@<TRIPOS>BOND
     1    28    29    1
     2    29    27    1
     3    27    30    1
     4    30    31    1
     5    27    26    1
     6    26    25    1
     7    25    24    1
     8    24     1    1
     9     1     2   ar
    10     2     3   ar
    11     3    11    1
    12    11    12   ar
    13    12    13   ar
    14    13    18    1
    15    18    19    1
    16    13    14   ar
    17    14    20    1
    18    20    21    3
    19    14    15   ar
    20    15    16   ar
    21    16    17    1
    22     3     4   ar
    23     4     5   ar
    24     5    22    1
    25    22    23    3
    26     5     6   ar
    27     6     7   ar
    28     7     8   ar
    29     8     9   ar
    30     9     1   ar
    31    16    11   ar
    32     8     4    1
    33     9    10    1
@<TRIPOS>MOLECULE
*****
 31 33 0 0 0
SMALL
GASTEIGER

@<TRIPOS>ATOM
      1 C         139.0270  142.2109  161.0446 C.ar    1  UNL1        0.1690
      2 N         139.9324  141.3110  161.8321 N.ar    1  UNL1       -0.2226
      3 C         140.2427  141.6271  163.2653 C.ar    1  UNL1        0.0878
      4 C         139.6473  142.8431  163.9109 C.ar    1  UNL1        0.0628
      5 C         139.7706  143.4062  165.2957 C.ar    1  UNL1        0.0919
      6 C         138.9412  144.6542  165.3641 C.ar    1  UNL1        0.1109
      7 N         138.3054  144.8624  164.0215 N.ar    1  UNL1       -0.2262
      8 C         138.7418  143.7430  163.1234 C.ar    1  UNL1        0.1441
      9 N         138.4316  143.4270  161.6903 N.ar    1  UNL1       -0.3189
     10 H         137.8373  144.0176  161.1734 H       1  UNL1        0.1693
     11 C         141.1482  140.7270  164.0527 C.ar    1  UNL1        0.0315
     12 C         142.6365  140.8782  163.9426 C.ar    1  UNL1        0.0399
     13 C         143.5421  139.9783  164.7300 C.ar    1  UNL1        0.1483
     14 C         142.9593  138.9272  165.6275 C.ar    1  UNL1        0.1031
     15 C         141.4710  138.7760  165.7376 C.ar    1  UNL1        0.0248
     16 C         140.5654  139.6760  164.9502 C.ar    1  UNL1        0.0600
     17 CL        139.0772  139.5248  165.0603 Cl      1  UNL1       -0.0822
     18 O         145.0304  140.1294  164.6198 O.3     1  UNL1       -0.4707
     19 C         145.6127  141.2741  163.8448 C.3     1  UNL1        0.2525
     20 C         143.8649  138.0272  166.4149 C.1     1  UNL1        0.1035
     21 N         144.7706  137.1272  167.2022 N.1     1  UNL1       -0.1907
     22 C         140.5809  142.8236  166.4155 C.1     1  UNL1        0.1021
     23 N         141.3912  142.2410  167.5353 N.1     1  UNL1       -0.1908
     24 S         138.7168  141.8949  159.6114 S.3     1  UNL1       -0.0761
     25 C         139.5315  140.8728  158.8755 C.3     1  UNL1        0.0824
     26 C         139.2171  139.4138  159.0252 C.3     1  UNL1        0.0843
     27 N         139.8078  138.6319  160.1609 N.3     1  UNL1       -0.2719
     28 C         141.8921  137.9574  161.5576 C.3     1  UNL1        0.0188
     29 C         141.2972  138.5243  160.3026 C.3     1  UNL1        0.0722
     30 C         138.9092  137.9577  161.1547 C.3     1  UNL1        0.0722
     31 C         137.7188  138.6862  161.7045 C.3     1  UNL1        0.0188
@<TRIPOS>BOND
     1    28    29    1
     2    29    27    1
     3    27    30    1
     4    30    31    1
     5    27    26    1
     6    26    25    1
     7    25    24    1
     8    24     1    1
     9     1     2   ar
    10     2     3   ar
    11     3    11    1
    12    11    12   ar
    13    12    13   ar
    14    13    18    1
    15    18    19    1
    16    13    14   ar
    17    14    20    1
    18    20    21    3
    19    14    15   ar
    20    15    16   ar
    21    16    17    1
    22     3     4   ar
    23     4     5   ar
    24     5    22    1
    25    22    23    3
    26     5     6   ar
    27     6     7   ar
    28     7     8   ar
    29     8     9   ar
    30     9     1   ar
    31    16    11   ar
    32     8     4    1
    33     9    10    1
@<TRIPOS>MOLECULE
*****
 31 33 0 0 0
SMALL
GASTEIGER

@<TRIPOS>ATOM
      1 C         141.1286  142.1189  160.6667 C.ar    1  UNL1        0.1690
      2 N         141.5419  141.7721  162.0662 N.ar    1  UNL1       -0.2226
      3 C         140.8051  140.7074  162.8238 C.ar    1  UNL1        0.0878
      4 C         139.6551  139.9897  162.1817 C.ar    1  UNL1        0.0628
      5 C         138.7468  138.9039  162.6776 C.ar    1  UNL1        0.0919
      6 C         137.7722  138.5797  161.5845 C.ar    1  UNL1        0.1109
      7 N         138.0781  139.4651  160.4130 N.ar    1  UNL1       -0.2262
      8 C         139.2419  140.3366  160.7821 C.ar    1  UNL1        0.1441
      9 N         139.9786  141.4012  160.0246 N.ar    1  UNL1       -0.3189
     10 H         139.7074  141.6288  159.1060 H       1  UNL1        0.1693
     11 C         141.2184  140.3606  164.2235 C.ar    1  UNL1        0.0315
     12 C         140.5574  141.0343  165.3893 C.ar    1  UNL1        0.0399
     13 C         140.9706  140.6875  166.7890 C.ar    1  UNL1        0.1483
     14 C         142.0449  139.6671  167.0227 C.ar    1  UNL1        0.1031
     15 C         142.7059  138.9935  165.8568 C.ar    1  UNL1        0.0248
     16 C         142.2927  139.3402  164.4572 C.ar    1  UNL1        0.0600
     17 CL        142.9537  138.6666  163.2913 Cl      1  UNL1       -0.0822
     18 O         140.3096  141.3612  167.9548 O.3     1  UNL1       -0.4707
     19 C         140.7193  142.7490  168.3502 C.3     1  UNL1        0.2525
     20 C         142.4582  139.3204  168.4223 C.1     1  UNL1        0.1035
     21 N         142.8713  138.9737  169.8220 N.1     1  UNL1       -0.1907
     22 C         138.8032  138.2560  164.0293 C.1     1  UNL1        0.1021
     23 N         138.8596  137.6082  165.3810 N.1     1  UNL1       -0.1908
     24 S         141.8654  143.1835  159.9091 S.3     1  UNL1       -0.0761
     25 C         141.4465  144.6184  160.0334 C.3     1  UNL1        0.0824
     26 C         140.1207  144.9624  160.6449 C.3     1  UNL1        0.0843
     27 N         139.9737  145.0140  162.1369 N.3     1  UNL1       -0.2719
     28 C         141.4512  144.5103  164.2138 C.3     1  UNL1        0.0188
     29 C         141.1597  145.3371  162.9965 C.3     1  UNL1        0.0722
     30 C         138.6409  144.7424  162.7690 C.3     1  UNL1        0.0722
     31 C         138.0814  143.3506  162.7711 C.3     1  UNL1        0.0188
@<TRIPOS>BOND
     1    28    29    1
     2    29    27    1
     3    27    30    1
     4    30    31    1
     5    27    26    1
     6    26    25    1
     7    25    24    1
     8    24     1    1
     9     1     2   ar
    10     2     3   ar
    11     3    11    1
    12    11    12   ar
    13    12    13   ar
    14    13    18    1
    15    18    19    1
    16    13    14   ar
    17    14    20    1
    18    20    21    3
    19    14    15   ar
    20    15    16   ar
    21    16    17    1
    22     3     4   ar
    23     4     5   ar
    24     5    22    1
    25    22    23    3
    26     5     6   ar
    27     6     7   ar
    28     7     8   ar
    29     8     9   ar
    30     9     1   ar
    31    16    11   ar
    32     8     4    1
    33     9    10    1
@<TRIPOS>MOLECULE
*****
 31 33 0 0 0
SMALL
GASTEIGER

@<TRIPOS>ATOM
      1 C         140.4339  141.8170  160.8977 C.ar    1  UNL1        0.1690
      2 N         140.0684  141.6767  162.3456 N.ar    1  UNL1       -0.2226
      3 C         140.8923  140.8046  163.2461 C.ar    1  UNL1        0.0878
      4 C         142.0817  140.0729  162.6985 C.ar    1  UNL1        0.0628
      5 C         143.0742  139.1490  163.3397 C.ar    1  UNL1        0.0919
      6 C         144.0532  138.7183  162.2880 C.ar    1  UNL1        0.1109
      7 N         143.6657  139.3760  160.9968 N.ar    1  UNL1       -0.2262
      8 C         142.4472  140.2133  161.2505 C.ar    1  UNL1        0.1441
      9 N         141.6234  141.0853  160.3501 N.ar    1  UNL1       -0.3189
     10 H         141.8633  141.1774  159.3997 H       1  UNL1        0.1693
     11 C         140.5266  140.6643  164.6941 C.ar    1  UNL1        0.0315
     12 C         141.0904  141.6176  165.7057 C.ar    1  UNL1        0.0399
     13 C         140.7248  141.4774  167.1537 C.ar    1  UNL1        0.1483
     14 C         139.7955  140.3839  167.5900 C.ar    1  UNL1        0.1031
     15 C         139.2317  139.4306  166.5784 C.ar    1  UNL1        0.0248
     16 C         139.5973  139.5708  165.1304 C.ar    1  UNL1        0.0600
     17 CL        139.0335  138.6175  164.1188 Cl      1  UNL1       -0.0822
     18 O         141.2886  142.4307  168.1653 O.3     1  UNL1       -0.4707
     19 C         142.6886  142.2460  168.6712 C.3     1  UNL1        0.2525
     20 C         139.4299  140.2436  169.0380 C.1     1  UNL1        0.1035
     21 N         139.0644  140.1034  170.4861 N.1     1  UNL1       -0.1907
     22 C         143.0857  138.7294  164.7798 C.1     1  UNL1        0.1021
     23 N         143.0972  138.3098  166.2199 N.1     1  UNL1       -0.1908
     24 S         139.6100  142.6891  159.9972 S.3     1  UNL1       -0.0761
     25 C         139.9597  144.1383  159.8314 C.3     1  UNL1        0.0824
     26 C         141.2807  144.6519  160.3224 C.3     1  UNL1        0.0843
     27 N         141.4811  144.9312  161.7826 N.3     1  UNL1       -0.2719
     28 C         139.3996  144.9678  163.3370 C.3     1  UNL1        0.0188
     29 C         140.4449  145.6995  162.5482 C.3     1  UNL1        0.0722
     30 C         142.7174  144.4423  162.4770 C.3     1  UNL1        0.0722
     31 C         143.1388  145.0563  163.7791 C.3     1  UNL1        0.0188
@<TRIPOS>BOND
     1    28    29    1
     2    29    27    1
     3    27    30    1
     4    30    31    1
     5    27    26    1
     6    26    25    1
     7    25    24    1
     8    24     1    1
     9     1     2   ar
    10     2     3   ar
    11     3    11    1
    12    11    12   ar
    13    12    13   ar
    14    13    18    1
    15    18    19    1
    16    13    14   ar
    17    14    20    1
    18    20    21    3
    19    14    15   ar
    20    15    16   ar
    21    16    17    1
    22     3     4   ar
    23     4     5   ar
    24     5    22    1
    25    22    23    3
    26     5     6   ar
    27     6     7   ar
    28     7     8   ar
    29     8     9   ar
    30     9     1   ar
    31    16    11   ar
    32     8     4    1
    33     9    10    1
