@<TRIPOS>MOLECULE
*****
 40 44 0 0 0
SMALL
GASTEIGER

@<TRIPOS>ATOM
      1 N         140.8108  139.4530  159.8600 N.3     1  UNL1       -0.2750
      2 C         140.8591  140.9494  159.7701 C.3     1  UNL1        0.0737
      3 C         140.9896  141.7720  161.0176 C.3     1  UNL1        0.0371
      4 C         141.0718  141.0980  162.3552 C.3     1  UNL1        0.0759
      5 C         141.0235  139.6015  162.4451 C.3     1  UNL1        0.0371
      6 C         140.8930  138.7789  161.1976 C.3     1  UNL1        0.0737
      7 C         143.2555  136.7655  155.4281 C.2     1  UNL1        0.2542
      8 O         144.7464  136.9213  155.4826 O.2     1  UNL1       -0.2697
      9 N         142.3971  137.3871  156.4895 N.am    1  UNL1       -0.2758
     10 C         143.0296  138.1646  157.6056 C.3     1  UNL1        0.0951
     11 C         142.1712  138.7862  158.6670 C.3     1  UNL1        0.0362
     12 C         140.6803  138.6304  158.6125 C.3     1  UNL1        0.0487
     13 C         139.2348  138.7602  158.9912 C.3     1  UNL1        0.0161
     14 C         140.0478  137.8530  157.4965 C.3     1  UNL1        0.0362
     15 C         140.9062  137.2313  156.4350 C.3     1  UNL1        0.0951
     16 C         142.2372  138.1935  152.9941 C.3     1  UNL1        0.0316
     17 C         142.1139  136.7020  153.0951 C.ar    1  UNL1       -0.0058
     18 C         141.4814  135.9245  151.9791 C.ar    1  UNL1        0.0730
     19 C         141.3581  134.4330  152.0801 C.ar    1  UNL1        0.3010
     20 N         141.8672  133.7190  153.2970 N.ar    1  UNL1       -0.1606
     21 O         141.7438  132.2275  153.3979 O.co2   1  UNL1       -0.6190
     22 C         142.4996  134.4965  154.4130 C.ar    1  UNL1        0.2180
     23 C         143.0088  133.7825  155.6300 C.3     1  UNL1        0.1093
     24 C         142.6230  135.9880  154.3120 C.ar    1  UNL1        0.1099
     25 N         141.2022  141.9205  163.6027 N.pl3   1  UNL1       -0.3051
     26 C         140.0377  142.7287  164.0934 C.ar    1  UNL1        0.0480
     27 C         140.2710  144.0510  164.7619 C.ar    1  UNL1        0.0145
     28 C         139.1064  144.8592  165.2527 C.ar    1  UNL1        0.0013
     29 C         137.7086  144.3449  165.0749 C.ar    1  UNL1        0.0001
     30 C         137.4753  143.0226  164.4064 C.ar    1  UNL1        0.0013
     31 C         138.6399  142.2144  163.9156 C.ar    1  UNL1        0.0145
     32 C         142.4972  141.9350  164.3596 C.3     1  UNL1        0.1177
     33 C         142.5638  141.3596  165.7432 C.ar    1  UNL1       -0.0017
     34 C         142.5288  139.8730  165.9398 C.ar    1  UNL1       -0.0026
     35 C         142.5954  139.2976  167.3234 C.ar    1  UNL1        0.0004
     36 C         142.6969  140.2090  168.5105 C.ar    1  UNL1        0.0103
     37 C         142.7319  141.6956  168.3140 C.ar    1  UNL1        0.0682
     38 C         142.6654  142.2710  166.9304 C.ar    1  UNL1        0.0077
     39 C         142.8335  142.6069  169.5011 C.1     1  UNL1        0.1004
     40 N         142.9351  143.5181  170.6882 N.1     1  UNL1       -0.1908
@<TRIPOS>UNITY_ATOM_ATTR
20 1
charge 1
21 1
charge -1
@<TRIPOS>BOND
     1    16    17    1
     2    17    18   ar
     3    18    19   ar
     4    19    20   ar
     5    20    21    1
     6    20    22   ar
     7    22    23    1
     8    22    24   ar
     9    24     7    1
    10     7     8    2
    11     7     9   am
    12     9    10    1
    13    10    11    1
    14    11    12    1
    15    12    13    1
    16    12     1    1
    17     1     2    1
    18     2     3    1
    19     3     4    1
    20     4    25    1
    21    25    32    1
    22    32    33    1
    23    33    34   ar
    24    34    35   ar
    25    35    36   ar
    26    36    37   ar
    27    37    39    1
    28    39    40    3
    29    37    38   ar
    30    25    26    1
    31    26    27   ar
    32    27    28   ar
    33    28    29   ar
    34    29    30   ar
    35    30    31   ar
    36     4     5    1
    37     5     6    1
    38    12    14    1
    39    14    15    1
    40    24    17   ar
    41    15     9    1
    42     6     1    1
    43    38    33   ar
    44    31    26   ar
@<TRIPOS>MOLECULE
*****
 40 44 0 0 0
SMALL
GASTEIGER

@<TRIPOS>ATOM
      1 N         140.8382  139.3680  160.2389 N.3     1  UNL1       -0.2750
      2 C         141.6706  138.8192  161.3595 C.3     1  UNL1        0.0737
      3 C         141.7702  139.5674  162.6557 C.3     1  UNL1        0.0371
      4 C         141.0373  140.8644  162.8313 C.3     1  UNL1        0.0759
      5 C         140.2049  141.4131  161.7107 C.3     1  UNL1        0.0371
      6 C         140.1052  140.6649  160.4144 C.3     1  UNL1        0.0737
      7 C         143.3646  137.1730  155.5869 C.2     1  UNL1        0.2542
      8 O         144.8399  137.4421  155.6196 O.2     1  UNL1       -0.2697
      9 N         142.4892  137.6552  156.7055 N.am    1  UNL1       -0.2758
     10 C         143.0892  138.4067  157.8568 C.3     1  UNL1        0.0951
     11 C         142.2138  138.8889  158.9753 C.3     1  UNL1        0.0362
     12 C         140.7385  138.6198  158.9426 C.3     1  UNL1        0.0487
     13 C         139.2979  138.6104  159.3601 C.3     1  UNL1        0.0161
     14 C         140.1386  137.8683  157.7914 C.3     1  UNL1        0.0362
     15 C         141.0139  137.3860  156.6728 C.3     1  UNL1        0.0951
     16 C         142.1869  138.6699  153.2691 C.3     1  UNL1        0.0316
     17 C         142.1758  137.1700  153.2767 C.ar    1  UNL1       -0.0058
     18 C         141.5759  136.4185  152.1255 C.ar    1  UNL1        0.0730
     19 C         141.5648  134.9186  152.1331 C.ar    1  UNL1        0.3010
     20 N         142.1537  134.1701  153.2920 N.ar    1  UNL1       -0.1606
     21 O         142.1426  132.6702  153.2996 O.co2   1  UNL1       -0.6190
     22 C         142.7536  134.9216  154.4432 C.ar    1  UNL1        0.2180
     23 C         143.3424  134.1731  155.6022 C.3     1  UNL1        0.1093
     24 C         142.7646  136.4215  154.4356 C.ar    1  UNL1        0.1099
     25 N         141.1370  141.6126  164.1275 N.pl3   1  UNL1       -0.3051
     26 C         142.0485  142.7985  164.2409 C.ar    1  UNL1        0.0480
     27 C         143.4173  142.6384  164.8333 C.ar    1  UNL1        0.0145
     28 C         144.3288  143.8242  164.9466 C.ar    1  UNL1        0.0013
     29 C         143.8717  145.1701  164.4675 C.ar    1  UNL1        0.0001
     30 C         142.5030  145.3302  163.8752 C.ar    1  UNL1        0.0013
     31 C         141.5914  144.1443  163.7618 C.ar    1  UNL1        0.0145
     32 C         140.3251  141.1750  165.3105 C.3     1  UNL1        0.1177
     33 C         141.0114  140.7154  166.5626 C.ar    1  UNL1       -0.0017
     34 C         142.0662  139.6514  166.4923 C.ar    1  UNL1       -0.0026
     35 C         142.7525  139.1917  167.7444 C.ar    1  UNL1        0.0004
     36 C         142.3838  139.7962  169.0668 C.ar    1  UNL1        0.0103
     37 C         141.3289  140.8602  169.1371 C.ar    1  UNL1        0.0682
     38 C         140.6427  141.3198  167.8850 C.ar    1  UNL1        0.0077
     39 C         140.9603  141.4646  170.4596 C.1     1  UNL1        0.1004
     40 N         140.5916  142.0690  171.7819 N.1     1  UNL1       -0.1908
@<TRIPOS>UNITY_ATOM_ATTR
20 1
charge 1
21 1
charge -1
@<TRIPOS>BOND
     1    16    17    1
     2    17    18   ar
     3    18    19   ar
     4    19    20   ar
     5    20    21    1
     6    20    22   ar
     7    22    23    1
     8    22    24   ar
     9    24     7    1
    10     7     8    2
    11     7     9   am
    12     9    10    1
    13    10    11    1
    14    11    12    1
    15    12    13    1
    16    12     1    1
    17     1     2    1
    18     2     3    1
    19     3     4    1
    20     4    25    1
    21    25    32    1
    22    32    33    1
    23    33    34   ar
    24    34    35   ar
    25    35    36   ar
    26    36    37   ar
    27    37    39    1
    28    39    40    3
    29    37    38   ar
    30    25    26    1
    31    26    27   ar
    32    27    28   ar
    33    28    29   ar
    34    29    30   ar
    35    30    31   ar
    36     4     5    1
    37     5     6    1
    38    12    14    1
    39    14    15    1
    40    24    17   ar
    41    15     9    1
    42     6     1    1
    43    38    33   ar
    44    31    26   ar
@<TRIPOS>MOLECULE
*****
 40 44 0 0 0
SMALL
GASTEIGER

@<TRIPOS>ATOM
      1 N         139.4249  143.1012  161.5028 N.3     1  UNL1       -0.2750
      2 C         140.4211  143.9734  160.7981 C.3     1  UNL1        0.0737
      3 C         140.4250  144.0483  159.3000 C.3     1  UNL1        0.0371
      4 C         139.4327  143.2509  158.5066 C.3     1  UNL1        0.0759
      5 C         138.4365  142.3787  159.2113 C.3     1  UNL1        0.0371
      6 C         138.4325  142.3038  160.7095 C.3     1  UNL1        0.0737
      7 C         141.2268  140.6042  166.3360 C.2     1  UNL1        0.2542
      8 O         142.1542  139.4682  166.0208 O.2     1  UNL1       -0.2697
      9 N         140.6249  141.4116  165.2244 N.am    1  UNL1       -0.2758
     10 C         140.9504  141.0829  163.7974 C.3     1  UNL1        0.0951
     11 C         140.3484  141.8903  162.6858 C.3     1  UNL1        0.0362
     12 C         139.4210  143.0263  163.0010 C.3     1  UNL1        0.0487
     13 C         138.4949  144.1883  162.7959 C.3     1  UNL1        0.0161
     14 C         139.0955  143.3549  164.4278 C.3     1  UNL1        0.0362
     15 C         139.6974  142.5476  165.5396 C.3     1  UNL1        0.0951
     16 C         138.7446  139.4931  167.6026 C.3     1  UNL1        0.0316
     17 C         139.6602  140.3773  168.3962 C.ar    1  UNL1       -0.0058
     18 C         139.3347  140.7059  169.8231 C.ar    1  UNL1        0.0730
     19 C         140.2503  141.5901  170.6167 C.ar    1  UNL1        0.3010
     20 N         141.4914  142.1457  169.9835 N.ar    1  UNL1       -0.1606
     21 O         142.4070  143.0299  170.7771 O.co2   1  UNL1       -0.6190
     22 C         141.8169  141.8171  168.5566 C.ar    1  UNL1        0.2180
     23 C         143.0580  142.3727  167.9233 C.3     1  UNL1        0.1093
     24 C         140.9013  140.9329  167.7630 C.ar    1  UNL1        0.1099
     25 N         139.4366  143.3258  157.0085 N.pl3   1  UNL1       -0.3051
     26 C         138.3912  142.5958  156.2184 C.ar    1  UNL1        0.0480
     27 C         138.6195  141.1708  155.8092 C.ar    1  UNL1        0.0145
     28 C         137.5741  140.4408  155.0190 C.ar    1  UNL1        0.0013
     29 C         136.3006  141.1356  154.6381 C.ar    1  UNL1        0.0001
     30 C         136.0723  142.5606  155.0472 C.ar    1  UNL1        0.0013
     31 C         137.1177  143.2906  155.8374 C.ar    1  UNL1        0.0145
     32 C         140.4857  144.1307  156.3005 C.3     1  UNL1        0.1177
     33 C         140.1686  145.5135  155.8134 C.ar    1  UNL1       -0.0017
     34 C         140.5198  145.9137  154.4111 C.ar    1  UNL1       -0.0026
     35 C         140.2026  147.2965  153.9241 C.ar    1  UNL1        0.0004
     36 C         139.5342  148.2791  154.8394 C.ar    1  UNL1        0.0103
     37 C         139.1831  147.8790  156.2416 C.ar    1  UNL1        0.0682
     38 C         139.5002  146.4962  156.7287 C.ar    1  UNL1        0.0077
     39 C         138.5147  148.8616  157.1569 C.1     1  UNL1        0.1004
     40 N         137.8463  149.8442  158.0722 N.1     1  UNL1       -0.1908
@<TRIPOS>UNITY_ATOM_ATTR
20 1
charge 1
21 1
charge -1
@<TRIPOS>BOND
     1    16    17    1
     2    17    18   ar
     3    18    19   ar
     4    19    20   ar
     5    20    21    1
     6    20    22   ar
     7    22    23    1
     8    22    24   ar
     9    24     7    1
    10     7     8    2
    11     7     9   am
    12     9    10    1
    13    10    11    1
    14    11    12    1
    15    12    13    1
    16    12     1    1
    17     1     2    1
    18     2     3    1
    19     3     4    1
    20     4    25    1
    21    25    32    1
    22    32    33    1
    23    33    34   ar
    24    34    35   ar
    25    35    36   ar
    26    36    37   ar
    27    37    39    1
    28    39    40    3
    29    37    38   ar
    30    25    26    1
    31    26    27   ar
    32    27    28   ar
    33    28    29   ar
    34    29    30   ar
    35    30    31   ar
    36     4     5    1
    37     5     6    1
    38    12    14    1
    39    14    15    1
    40    24    17   ar
    41    15     9    1
    42     6     1    1
    43    38    33   ar
    44    31    26   ar
@<TRIPOS>MOLECULE
*****
 40 44 0 0 0
SMALL
GASTEIGER

@<TRIPOS>ATOM
      1 N         139.1532  142.8427  161.2856 N.3     1  UNL1       -0.2750
      2 C         138.4123  141.7944  160.5097 C.3     1  UNL1        0.0737
      3 C         138.3786  141.8541  159.0113 C.3     1  UNL1        0.0371
      4 C         139.0859  142.9621  158.2887 C.3     1  UNL1        0.0759
      5 C         139.8268  144.0105  159.0646 C.3     1  UNL1        0.0371
      6 C         139.8605  143.9508  160.5630 C.3     1  UNL1        0.0737
      7 C         140.9746  140.3166  166.0963 C.2     1  UNL1        0.2542
      8 O         141.8421  139.1374  165.7690 O.2     1  UNL1       -0.2697
      9 N         140.3787  141.1387  164.9922 N.am    1  UNL1       -0.2758
     10 C         140.6504  140.7817  163.5608 C.3     1  UNL1        0.0951
     11 C         140.0545  141.6039  162.4567 C.3     1  UNL1        0.0362
     12 C         139.1870  142.7830  162.7840 C.3     1  UNL1        0.0487
     13 C         138.3078  143.9828  162.5909 C.3     1  UNL1        0.0161
     14 C         138.9153  143.1400  164.2153 C.3     1  UNL1        0.0362
     15 C         139.5112  142.3178  165.3195 C.3     1  UNL1        0.0951
     16 C         142.8560  142.1269  167.5738 C.3     1  UNL1        0.0316
     17 C         141.6437  141.5787  168.2664 C.ar    1  UNL1       -0.0058
     18 C         141.3721  141.9356  169.6977 C.ar    1  UNL1        0.0730
     19 C         140.1598  141.3874  170.3903 C.ar    1  UNL1        0.3010
     20 N         139.2191  140.4822  169.6516 N.ar    1  UNL1       -0.1606
     21 O         138.0067  139.9340  170.3442 O.co2   1  UNL1       -0.6190
     22 C         139.4907  140.1253  168.2203 C.ar    1  UNL1        0.2180
     23 C         138.5500  139.2201  167.4815 C.3     1  UNL1        0.1093
     24 C         140.7030  140.6735  167.5277 C.ar    1  UNL1        0.1099
     25 N         139.0521  143.0218  156.7903 N.pl3   1  UNL1       -0.3051
     26 C         139.3688  144.3065  156.0836 C.ar    1  UNL1        0.0480
     27 C         138.2711  145.2782  155.7663 C.ar    1  UNL1        0.0145
     28 C         138.5878  146.5629  155.0596 C.ar    1  UNL1        0.0013
     29 C         140.0021  146.8758  154.6702 C.ar    1  UNL1        0.0001
     30 C         141.0999  145.9041  154.9875 C.ar    1  UNL1        0.0013
     31 C         140.7832  144.6194  155.6943 C.ar    1  UNL1        0.0145
     32 C         138.7018  141.7970  155.9985 C.3     1  UNL1        0.1177
     33 C         137.3334  141.6565  155.4004 C.ar    1  UNL1       -0.0017
     34 C         137.0768  142.1214  153.9975 C.ar    1  UNL1       -0.0026
     35 C         135.7084  141.9809  153.3994 C.ar    1  UNL1        0.0004
     36 C         134.5966  141.3755  154.2041 C.ar    1  UNL1        0.0103
     37 C         134.8533  140.9107  155.6070 C.ar    1  UNL1        0.0682
     38 C         136.2216  141.0512  156.2051 C.ar    1  UNL1        0.0077
     39 C         133.7415  140.3053  156.4117 C.1     1  UNL1        0.1004
     40 N         132.6298  139.7000  157.2164 N.1     1  UNL1       -0.1908
@<TRIPOS>UNITY_ATOM_ATTR
20 1
charge 1
21 1
charge -1
@<TRIPOS>BOND
     1    16    17    1
     2    17    18   ar
     3    18    19   ar
     4    19    20   ar
     5    20    21    1
     6    20    22   ar
     7    22    23    1
     8    22    24   ar
     9    24     7    1
    10     7     8    2
    11     7     9   am
    12     9    10    1
    13    10    11    1
    14    11    12    1
    15    12    13    1
    16    12     1    1
    17     1     2    1
    18     2     3    1
    19     3     4    1
    20     4    25    1
    21    25    32    1
    22    32    33    1
    23    33    34   ar
    24    34    35   ar
    25    35    36   ar
    26    36    37   ar
    27    37    39    1
    28    39    40    3
    29    37    38   ar
    30    25    26    1
    31    26    27   ar
    32    27    28   ar
    33    28    29   ar
    34    29    30   ar
    35    30    31   ar
    36     4     5    1
    37     5     6    1
    38    12    14    1
    39    14    15    1
    40    24    17   ar
    41    15     9    1
    42     6     1    1
    43    38    33   ar
    44    31    26   ar
@<TRIPOS>MOLECULE
*****
 40 44 0 0 0
SMALL
GASTEIGER

@<TRIPOS>ATOM
      1 N         141.2300  138.4540  160.3353 N.3     1  UNL1       -0.2750
      2 C         142.4845  138.1824  159.5593 C.3     1  UNL1        0.0737
      3 C         142.4115  137.9157  158.0850 C.3     1  UNL1        0.0371
      4 C         141.0838  137.9207  157.3868 C.3     1  UNL1        0.0759
      5 C         139.8293  138.1923  158.1628 C.3     1  UNL1        0.0371
      6 C         139.9024  138.4590  159.6371 C.3     1  UNL1        0.0737
      7 C         139.0989  140.9791  165.0176 C.2     1  UNL1        0.2542
      8 O         137.8749  141.7733  164.6695 O.2     1  UNL1       -0.2697
      9 N         139.8336  140.2263  163.9483 N.am    1  UNL1       -0.2758
     10 C         139.3443  140.2676  162.5309 C.3     1  UNL1        0.0951
     11 C         140.0790  139.5148  161.4616 C.3     1  UNL1        0.0362
     12 C         141.3030  138.7206  161.8096 C.3     1  UNL1        0.0487
     13 C         142.5016  137.8339  161.6457 C.3     1  UNL1        0.0161
     14 C         141.7923  138.6793  163.2270 C.3     1  UNL1        0.0362
     15 C         141.0576  139.4321  164.2963 C.3     1  UNL1        0.0951
     16 C         138.0397  138.9066  166.9104 C.3     1  UNL1        0.0316
     17 C         139.0586  139.9016  167.3813 C.ar    1  UNL1       -0.0058
     18 C         139.5479  139.8603  168.7986 C.ar    1  UNL1        0.0730
     19 C         140.5668  140.8553  169.2696 C.ar    1  UNL1        0.3010
     20 N         141.0964  141.8916  168.3233 N.ar    1  UNL1       -0.1606
     21 O         142.1153  142.8866  168.7942 O.co2   1  UNL1       -0.6190
     22 C         140.6071  141.9328  166.9059 C.ar    1  UNL1        0.2180
     23 C         141.1367  142.9691  165.9595 C.3     1  UNL1        0.1093
     24 C         139.5882  140.9378  166.4350 C.ar    1  UNL1        0.1099
     25 N         141.0108  137.6541  155.9125 N.pl3   1  UNL1       -0.3051
     26 C         139.8634  138.1909  155.1092 C.ar    1  UNL1        0.0480
     27 C         138.6843  137.3143  154.8070 C.ar    1  UNL1        0.0145
     28 C         137.5369  137.8511  154.0037 C.ar    1  UNL1        0.0013
     29 C         137.5685  139.2645  153.5026 C.ar    1  UNL1        0.0001
     30 C         138.7476  140.1412  153.8048 C.ar    1  UNL1        0.0013
     31 C         139.8950  139.6044  154.6081 C.ar    1  UNL1        0.0145
     32 C         142.0851  136.8507  155.2414 C.3     1  UNL1        0.1177
     33 C         142.1969  135.3785  155.5063 C.ar    1  UNL1       -0.0017
     34 C         141.1757  134.4354  154.9428 C.ar    1  UNL1       -0.0026
     35 C         141.2875  132.9632  155.2077 C.ar    1  UNL1        0.0004
     36 C         142.4206  132.4342  156.0362 C.ar    1  UNL1        0.0103
     37 C         143.4418  133.3773  156.5996 C.ar    1  UNL1        0.0682
     38 C         143.3300  134.8494  156.3347 C.ar    1  UNL1        0.0077
     39 C         144.5749  132.8482  157.4281 C.1     1  UNL1        0.1004
     40 N         145.7080  132.3193  158.2564 N.1     1  UNL1       -0.1908
@<TRIPOS>UNITY_ATOM_ATTR
20 1
charge 1
21 1
charge -1
@<TRIPOS>BOND
     1    16    17    1
     2    17    18   ar
     3    18    19   ar
     4    19    20   ar
     5    20    21    1
     6    20    22   ar
     7    22    23    1
     8    22    24   ar
     9    24     7    1
    10     7     8    2
    11     7     9   am
    12     9    10    1
    13    10    11    1
    14    11    12    1
    15    12    13    1
    16    12     1    1
    17     1     2    1
    18     2     3    1
    19     3     4    1
    20     4    25    1
    21    25    32    1
    22    32    33    1
    23    33    34   ar
    24    34    35   ar
    25    35    36   ar
    26    36    37   ar
    27    37    39    1
    28    39    40    3
    29    37    38   ar
    30    25    26    1
    31    26    27   ar
    32    27    28   ar
    33    28    29   ar
    34    29    30   ar
    35    30    31   ar
    36     4     5    1
    37     5     6    1
    38    12    14    1
    39    14    15    1
    40    24    17   ar
    41    15     9    1
    42     6     1    1
    43    38    33   ar
    44    31    26   ar
@<TRIPOS>MOLECULE
*****
 40 44 0 0 0
SMALL
GASTEIGER

@<TRIPOS>ATOM
      1 N         139.8946  143.7856  161.5977 N.3     1  UNL1       -0.2750
      2 C         140.5829  144.9941  161.0358 C.3     1  UNL1        0.0737
      3 C         140.6388  145.2029  159.5514 C.3     1  UNL1        0.0371
      4 C         140.0065  144.2032  158.6290 C.3     1  UNL1        0.0759
      5 C         139.3182  142.9947  159.1909 C.3     1  UNL1        0.0371
      6 C         139.2623  142.7859  160.6753 C.3     1  UNL1        0.0737
      7 C         141.2012  140.6352  166.2030 C.2     1  UNL1        0.2542
      8 O         141.9725  139.4144  165.7971 O.2     1  UNL1       -0.2697
      9 N         140.7470  141.6157  165.1627 N.am    1  UNL1       -0.2758
     10 C         141.0641  141.3755  163.7164 C.3     1  UNL1        0.0951
     11 C         140.6099  142.3559  162.6761 C.3     1  UNL1        0.0362
     12 C         139.8386  143.5767  163.0820 C.3     1  UNL1        0.0487
     13 C         139.0868  144.8700  162.9724 C.3     1  UNL1        0.0161
     14 C         139.5215  143.8171  164.5282 C.3     1  UNL1        0.0362
     15 C         139.9757  142.8365  165.5686 C.3     1  UNL1        0.0951
     16 C         143.0371  142.3108  167.8829 C.3     1  UNL1        0.0316
     17 C         141.8020  141.7133  168.4893 C.ar    1  UNL1       -0.0058
     18 C         141.4849  141.9535  169.9355 C.ar    1  UNL1        0.0730
     19 C         140.2499  141.3560  170.5419 C.ar    1  UNL1        0.3010
     20 N         139.3319  140.5183  169.7019 N.ar    1  UNL1       -0.1606
     21 O         138.0969  139.9207  170.3083 O.co2   1  UNL1       -0.6190
     22 C         139.6491  140.2780  168.2557 C.ar    1  UNL1        0.2180
     23 C         138.7311  139.4402  167.4157 C.3     1  UNL1        0.1093
     24 C         140.8841  140.8755  167.6494 C.ar    1  UNL1        0.1099
     25 N         140.0625  144.4120  157.1447 N.pl3   1  UNL1       -0.3051
     26 C         141.3095  144.0677  156.3854 C.ar    1  UNL1        0.0480
     27 C         141.8087  144.9843  155.3081 C.ar    1  UNL1        0.0145
     28 C         143.0557  144.6400  154.5487 C.ar    1  UNL1        0.0013
     29 C         143.8034  143.3792  154.8668 C.ar    1  UNL1        0.0001
     30 C         143.3042  142.4626  155.9441 C.ar    1  UNL1        0.0013
     31 C         142.0572  142.8069  156.7034 C.ar    1  UNL1        0.0145
     32 C         138.8716  144.9652  156.4196 C.3     1  UNL1        0.1177
     33 C         138.0019  144.0561  155.6028 C.ar    1  UNL1       -0.0017
     34 C         137.9362  144.2198  154.1132 C.ar    1  UNL1       -0.0026
     35 C         137.0666  143.3107  153.2964 C.ar    1  UNL1        0.0004
     36 C         136.2625  142.2379  153.9693 C.ar    1  UNL1        0.0103
     37 C         136.3282  142.0742  155.4588 C.ar    1  UNL1        0.0682
     38 C         137.1979  142.9833  156.2756 C.ar    1  UNL1        0.0077
     39 C         135.5241  141.0014  156.1316 C.1     1  UNL1        0.1004
     40 N         134.7202  139.9287  156.8044 N.1     1  UNL1       -0.1908
@<TRIPOS>UNITY_ATOM_ATTR
20 1
charge 1
21 1
charge -1
@<TRIPOS>BOND
     1    16    17    1
     2    17    18   ar
     3    18    19   ar
     4    19    20   ar
     5    20    21    1
     6    20    22   ar
     7    22    23    1
     8    22    24   ar
     9    24     7    1
    10     7     8    2
    11     7     9   am
    12     9    10    1
    13    10    11    1
    14    11    12    1
    15    12    13    1
    16    12     1    1
    17     1     2    1
    18     2     3    1
    19     3     4    1
    20     4    25    1
    21    25    32    1
    22    32    33    1
    23    33    34   ar
    24    34    35   ar
    25    35    36   ar
    26    36    37   ar
    27    37    39    1
    28    39    40    3
    29    37    38   ar
    30    25    26    1
    31    26    27   ar
    32    27    28   ar
    33    28    29   ar
    34    29    30   ar
    35    30    31   ar
    36     4     5    1
    37     5     6    1
    38    12    14    1
    39    14    15    1
    40    24    17   ar
    41    15     9    1
    42     6     1    1
    43    38    33   ar
    44    31    26   ar
@<TRIPOS>MOLECULE
*****
 40 44 0 0 0
SMALL
GASTEIGER

@<TRIPOS>ATOM
      1 N         141.7545  138.7818  160.2913 N.3     1  UNL1       -0.2750
      2 C         140.3556  138.5522  159.8012 C.3     1  UNL1        0.0737
      3 C         140.0969  138.3545  158.3370 C.3     1  UNL1        0.0371
      4 C         141.2371  138.3864  157.3628 C.3     1  UNL1        0.0759
      5 C         142.6360  138.6161  157.8529 C.3     1  UNL1        0.0371
      6 C         142.8948  138.8138  159.3172 C.3     1  UNL1        0.0737
      7 C         140.7440  141.6456  165.1512 C.2     1  UNL1        0.2542
      8 O         139.7472  142.7408  164.9126 O.2     1  UNL1       -0.2697
      9 N         141.1671  140.7569  164.0193 N.am    1  UNL1       -0.2758
     10 C         140.5934  140.9634  162.6488 C.3     1  UNL1        0.0951
     11 C         141.0165  140.0747  161.5169 C.3     1  UNL1        0.0362
     12 C         142.0133  138.9795  161.7555 C.3     1  UNL1        0.0487
     13 C         142.9202  137.8157  161.4856 C.3     1  UNL1        0.0161
     14 C         142.5870  138.7730  163.1259 C.3     1  UNL1        0.0362
     15 C         142.1639  139.6617  164.2579 C.3     1  UNL1        0.0951
     16 C         143.3542  142.9249  165.8931 C.3     1  UNL1        0.0316
     17 C         142.6228  142.0788  166.8926 C.ar    1  UNL1       -0.0058
     18 C         143.1964  141.8723  168.2631 C.ar    1  UNL1        0.0730
     19 C         142.4650  141.0262  169.2627 C.ar    1  UNL1        0.3010
     20 N         141.1599  140.3866  168.8917 N.ar    1  UNL1       -0.1606
     21 O         140.4285  139.5405  169.8913 O.co2   1  UNL1       -0.6190
     22 C         140.5863  140.5931  167.5213 C.ar    1  UNL1        0.2180
     23 C         139.2811  139.9534  167.1503 C.3     1  UNL1        0.1093
     24 C         141.3177  141.4392  166.5217 C.ar    1  UNL1        0.1099
     25 N         140.9784  138.1887  155.8986 N.pl3   1  UNL1       -0.3051
     26 C         139.6233  138.4884  155.3293 C.ar    1  UNL1        0.0480
     27 C         138.7248  137.3661  154.9013 C.ar    1  UNL1        0.0145
     28 C         137.3697  137.6658  154.3320 C.ar    1  UNL1        0.0013
     29 C         136.9132  139.0876  154.1907 C.ar    1  UNL1        0.0001
     30 C         137.8118  140.2098  154.6187 C.ar    1  UNL1        0.0013
     31 C         139.1669  139.9102  155.1880 C.ar    1  UNL1        0.0145
     32 C         142.0746  137.6914  155.0036 C.3     1  UNL1        0.1177
     33 C         142.3408  136.2196  154.8904 C.ar    1  UNL1       -0.0017
     34 C         141.8356  135.4552  153.7029 C.ar    1  UNL1       -0.0026
     35 C         142.1018  133.9833  153.5897 C.ar    1  UNL1        0.0004
     36 C         142.8734  133.2759  154.6641 C.ar    1  UNL1        0.0103
     37 C         143.3786  134.0403  155.8517 C.ar    1  UNL1        0.0682
     38 C         143.1124  135.5122  155.9649 C.ar    1  UNL1        0.0077
     39 C         144.1502  133.3329  156.9261 C.1     1  UNL1        0.1004
     40 N         144.9217  132.6256  158.0004 N.1     1  UNL1       -0.1908
@<TRIPOS>UNITY_ATOM_ATTR
20 1
charge 1
21 1
charge -1
@<TRIPOS>BOND
     1    16    17    1
     2    17    18   ar
     3    18    19   ar
     4    19    20   ar
     5    20    21    1
     6    20    22   ar
     7    22    23    1
     8    22    24   ar
     9    24     7    1
    10     7     8    2
    11     7     9   am
    12     9    10    1
    13    10    11    1
    14    11    12    1
    15    12    13    1
    16    12     1    1
    17     1     2    1
    18     2     3    1
    19     3     4    1
    20     4    25    1
    21    25    32    1
    22    32    33    1
    23    33    34   ar
    24    34    35   ar
    25    35    36   ar
    26    36    37   ar
    27    37    39    1
    28    39    40    3
    29    37    38   ar
    30    25    26    1
    31    26    27   ar
    32    27    28   ar
    33    28    29   ar
    34    29    30   ar
    35    30    31   ar
    36     4     5    1
    37     5     6    1
    38    12    14    1
    39    14    15    1
    40    24    17   ar
    41    15     9    1
    42     6     1    1
    43    38    33   ar
    44    31    26   ar
@<TRIPOS>MOLECULE
*****
 40 44 0 0 0
SMALL
GASTEIGER

@<TRIPOS>ATOM
      1 N         140.8745  143.4161  163.0760 N.3     1  UNL1       -0.2750
      2 C         139.7982  142.8158  163.9312 C.3     1  UNL1        0.0737
      3 C         140.1611  142.0805  165.1872 C.3     1  UNL1        0.0371
      4 C         141.6003  141.9455  165.5881 C.3     1  UNL1        0.0759
      5 C         142.6765  142.5458  164.7329 C.3     1  UNL1        0.0371
      6 C         142.3136  143.2811  163.4769 C.3     1  UNL1        0.0737
      7 C         140.5325  143.5712  157.3576 C.2     1  UNL1        0.2542
      8 O         141.0320  142.2842  156.7710 O.2     1  UNL1       -0.2697
      9 N         140.5255  143.7646  158.8450 N.am    1  UNL1       -0.2758
     10 C         141.0181  142.6710  159.7459 C.3     1  UNL1        0.0951
     11 C         141.0111  142.8644  161.2333 C.3     1  UNL1        0.0362
     12 C         140.5116  144.1514  161.8200 C.3     1  UNL1        0.0487
     13 C         140.1381  145.1830  162.8428 C.3     1  UNL1        0.0161
     14 C         140.0190  145.2450  160.9192 C.3     1  UNL1        0.0362
     15 C         140.0260  145.0516  159.4317 C.3     1  UNL1        0.0951
     16 C         142.2857  145.9333  156.7686 C.3     1  UNL1        0.0316
     17 C         140.9165  145.8458  156.1623 C.ar    1  UNL1       -0.0058
     18 C         140.4239  146.9393  155.2614 C.ar    1  UNL1        0.0730
     19 C         139.0547  146.8518  154.6551 C.ar    1  UNL1        0.3010
     20 N         138.1781  145.6708  154.9496 N.ar    1  UNL1       -0.1606
     21 O         136.8089  145.5833  154.3432 O.co2   1  UNL1       -0.6190
     22 C         138.6707  144.5773  155.8504 C.ar    1  UNL1        0.2180
     23 C         137.7941  143.3962  156.1449 C.3     1  UNL1        0.1093
     24 C         140.0399  144.6648  156.4567 C.ar    1  UNL1        0.1099
     25 N         141.9631  141.2102  166.8441 N.pl3   1  UNL1       -0.3051
     26 C         142.1138  141.9594  168.1348 C.ar    1  UNL1        0.0480
     27 C         140.9543  142.7284  168.6954 C.ar    1  UNL1        0.0145
     28 C         141.1050  143.4776  169.9862 C.ar    1  UNL1        0.0013
     29 C         142.4151  143.4579  170.7163 C.ar    1  UNL1        0.0001
     30 C         143.5746  142.6889  170.1557 C.ar    1  UNL1        0.0013
     31 C         143.4239  141.9397  168.8650 C.ar    1  UNL1        0.0145
     32 C         142.1753  139.7257  166.8095 C.3     1  UNL1        0.1177
     33 C         141.7965  138.9421  165.5878 C.ar    1  UNL1       -0.0017
     34 C         140.4725  138.2397  165.5280 C.ar    1  UNL1       -0.0026
     35 C         140.0938  137.4561  164.3063 C.ar    1  UNL1        0.0004
     36 C         141.0390  137.3749  163.1445 C.ar    1  UNL1        0.0103
     37 C         142.3630  138.0773  163.2043 C.ar    1  UNL1        0.0682
     38 C         142.7418  138.8609  164.4260 C.ar    1  UNL1        0.0077
     39 C         143.3083  137.9961  162.0424 C.1     1  UNL1        0.1004
     40 N         144.2535  137.9149  160.8807 N.1     1  UNL1       -0.1908
@<TRIPOS>UNITY_ATOM_ATTR
20 1
charge 1
21 1
charge -1
@<TRIPOS>BOND
     1    16    17    1
     2    17    18   ar
     3    18    19   ar
     4    19    20   ar
     5    20    21    1
     6    20    22   ar
     7    22    23    1
     8    22    24   ar
     9    24     7    1
    10     7     8    2
    11     7     9   am
    12     9    10    1
    13    10    11    1
    14    11    12    1
    15    12    13    1
    16    12     1    1
    17     1     2    1
    18     2     3    1
    19     3     4    1
    20     4    25    1
    21    25    32    1
    22    32    33    1
    23    33    34   ar
    24    34    35   ar
    25    35    36   ar
    26    36    37   ar
    27    37    39    1
    28    39    40    3
    29    37    38   ar
    30    25    26    1
    31    26    27   ar
    32    27    28   ar
    33    28    29   ar
    34    29    30   ar
    35    30    31   ar
    36     4     5    1
    37     5     6    1
    38    12    14    1
    39    14    15    1
    40    24    17   ar
    41    15     9    1
    42     6     1    1
    43    38    33   ar
    44    31    26   ar
@<TRIPOS>MOLECULE
*****
 40 44 0 0 0
SMALL
GASTEIGER

@<TRIPOS>ATOM
      1 N         140.8646  138.5553  160.7088 N.3     1  UNL1       -0.2750
      2 C         139.7493  138.7067  159.7173 C.3     1  UNL1        0.0737
      3 C         140.0001  138.4483  158.2612 C.3     1  UNL1        0.0371
      4 C         141.3662  138.0385  157.7966 C.3     1  UNL1        0.0759
      5 C         142.4815  137.8871  158.7881 C.3     1  UNL1        0.0371
      6 C         142.2307  138.1455  160.2443 C.3     1  UNL1        0.0737
      7 C         142.3357  141.1619  165.5958 C.2     1  UNL1        0.2542
      8 O         143.5529  142.0130  165.3861 O.2     1  UNL1       -0.2697
      9 N         141.7617  140.3792  164.4522 N.am    1  UNL1       -0.2758
     10 C         142.4050  140.4475  163.0988 C.3     1  UNL1        0.0951
     11 C         141.8310  139.6648  161.9552 C.3     1  UNL1        0.0362
     12 C         140.6138  138.8137  162.1650 C.3     1  UNL1        0.0487
     13 C         139.4837  137.8729  161.8690 C.3     1  UNL1        0.0161
     14 C         139.9705  138.7453  163.5183 C.3     1  UNL1        0.0362
     15 C         140.5445  139.5281  164.6619 C.3     1  UNL1        0.0951
     16 C         140.2654  143.1878  166.3767 C.3     1  UNL1        0.0316
     17 C         140.6573  142.1065  167.3396 C.ar    1  UNL1       -0.0058
     18 C         140.0141  142.0382  168.6930 C.ar    1  UNL1        0.0730
     19 C         140.4060  140.9569  169.6559 C.ar    1  UNL1        0.3010
     20 N         141.4411  139.9440  169.2655 N.ar    1  UNL1       -0.1606
     21 O         141.8330  138.8627  170.2284 O.co2   1  UNL1       -0.6190
     22 C         142.0843  140.0123  167.9121 C.ar    1  UNL1        0.2180
     23 C         143.1195  138.9994  167.5216 C.3     1  UNL1        0.1093
     24 C         141.6924  141.0936  166.9492 C.ar    1  UNL1        0.1099
     25 N         141.6170  137.7801  156.3405 N.pl3   1  UNL1       -0.3051
     26 C         142.5805  138.6430  155.5807 C.ar    1  UNL1        0.0480
     27 C         142.1343  139.9694  155.0407 C.ar    1  UNL1        0.0145
     28 C         143.0977  140.8324  154.2810 C.ar    1  UNL1        0.0013
     29 C         144.5072  140.3689  154.0612 C.ar    1  UNL1        0.0001
     30 C         144.9534  139.0425  154.6012 C.ar    1  UNL1        0.0013
     31 C         143.9900  138.1796  155.3609 C.ar    1  UNL1        0.0145
     32 C         140.9045  136.6589  155.6440 C.3     1  UNL1        0.1177
     33 C         141.6245  135.3739  155.3606 C.ar    1  UNL1       -0.0017
     34 C         141.3819  134.6469  154.0713 C.ar    1  UNL1       -0.0026
     35 C         142.1019  133.3619  153.7878 C.ar    1  UNL1        0.0004
     36 C         143.0645  132.8039  154.7939 C.ar    1  UNL1        0.0103
     37 C         143.3071  133.5309  156.0833 C.ar    1  UNL1        0.0682
     38 C         142.5871  134.8159  156.3667 C.ar    1  UNL1        0.0077
     39 C         144.2697  132.9729  157.0893 C.1     1  UNL1        0.1004
     40 N         145.2322  132.4150  158.0953 N.1     1  UNL1       -0.1908
@<TRIPOS>UNITY_ATOM_ATTR
20 1
charge 1
21 1
charge -1
@<TRIPOS>BOND
     1    16    17    1
     2    17    18   ar
     3    18    19   ar
     4    19    20   ar
     5    20    21    1
     6    20    22   ar
     7    22    23    1
     8    22    24   ar
     9    24     7    1
    10     7     8    2
    11     7     9   am
    12     9    10    1
    13    10    11    1
    14    11    12    1
    15    12    13    1
    16    12     1    1
    17     1     2    1
    18     2     3    1
    19     3     4    1
    20     4    25    1
    21    25    32    1
    22    32    33    1
    23    33    34   ar
    24    34    35   ar
    25    35    36   ar
    26    36    37   ar
    27    37    39    1
    28    39    40    3
    29    37    38   ar
    30    25    26    1
    31    26    27   ar
    32    27    28   ar
    33    28    29   ar
    34    29    30   ar
    35    30    31   ar
    36     4     5    1
    37     5     6    1
    38    12    14    1
    39    14    15    1
    40    24    17   ar
    41    15     9    1
    42     6     1    1
    43    38    33   ar
    44    31    26   ar
