@<TRIPOS>MOLECULE
*****
 32 36 0 0 0
SMALL
GASTEIGER

@<TRIPOS>ATOM
      1 O         140.5672  137.0801  163.0770 O.2     1  UNL1       -0.2668
      2 C         140.3509  138.5369  163.3616 C.2     1  UNL1        0.2806
      3 N         140.4477  139.5405  162.2510 N.am    1  UNL1       -0.2999
      4 H         140.3057  140.4966  162.4378 H       1  UNL1        0.1498
      5 C         140.0377  138.9900  164.7568 C.ar    1  UNL1        0.2014
      6 C         138.8722  138.3992  165.4934 C.ar    1  UNL1        0.0843
      7 C         138.5590  138.8523  166.8886 C.ar    1  UNL1        0.2018
      8 O         137.3935  138.2614  167.6252 O.2     1  UNL1       -0.2864
      9 C         139.4112  139.8964  167.5472 C.ar    1  UNL1        0.0737
     10 C         139.0980  140.3495  168.9424 C.ar    1  UNL1        0.0085
     11 C         139.9502  141.3935  169.6009 C.ar    1  UNL1        0.0299
     12 C         141.1157  141.9844  168.8643 C.ar    1  UNL1        0.1432
     13 F         141.9679  143.0284  169.5229 F       1  UNL1       -0.2041
     14 C         141.4289  141.5312  167.4691 C.ar    1  UNL1        0.0672
     15 C         140.5767  140.4872  166.8106 C.ar    1  UNL1        0.1508
     16 O         140.8899  140.0340  165.4154 O.2     1  UNL1       -0.4486
     17 C         140.7609  139.0874  160.8558 C.3     1  UNL1        0.0747
     18 C         139.6522  138.6669  159.9372 C.3     1  UNL1        0.0369
     19 C         139.9654  138.2138  158.5420 C.3     1  UNL1        0.0741
     20 N         141.3873  138.1811  158.0654 N.3     1  UNL1       -0.2689
     21 C         142.4961  138.6016  158.9841 C.3     1  UNL1        0.0741
     22 C         142.1828  139.0547  160.3794 C.3     1  UNL1        0.0369
     23 C         141.7005  137.7280  156.6703 C.3     1  UNL1        0.0991
     24 C         141.9467  136.2749  156.3911 C.ar    1  UNL1       -0.0061
     25 C         141.1172  135.5566  155.3684 C.ar    1  UNL1       -0.0024
     26 C         141.3634  134.1035  155.0893 C.ar    1  UNL1        0.0062
     27 C         142.4391  133.3688  155.8328 C.ar    1  UNL1        0.0295
     28 S         142.9087  131.9455  155.7717 S.2     1  UNL1       -0.0864
     29 C         144.0284  131.7841  156.7567 C.ar    1  UNL1        0.0354
     30 C         144.2510  133.1077  157.4265 C.ar    1  UNL1        0.0075
     31 C         143.2687  134.0871  156.8554 C.ar    1  UNL1        0.0062
     32 C         143.0225  135.5401  157.1346 C.ar    1  UNL1       -0.0024
@<TRIPOS>BOND
     1     1     2    2
     2     2     3   am
     3     3    17    1
     4    17    18    1
     5    18    19    1
     6    19    20    1
     7    20    23    1
     8    23    24    1
     9    24    25   ar
    10    25    26   ar
    11    26    27   ar
    12    27    28   ar
    13    28    29   ar
    14    29    30   ar
    15    30    31   ar
    16    31    32   ar
    17    20    21    1
    18    21    22    1
    19     2     5    1
    20     5     6   ar
    21     6     7   ar
    22     7     8    2
    23     7     9   ar
    24     9    10   ar
    25    10    11   ar
    26    11    12   ar
    27    12    13    1
    28    12    14   ar
    29    14    15   ar
    30    15    16   ar
    31    22    17    1
    32    16     5   ar
    33    32    24   ar
    34    15     9   ar
    35    31    27   ar
    36     3     4    1
@<TRIPOS>MOLECULE
*****
 32 36 0 0 0
SMALL
GASTEIGER

@<TRIPOS>ATOM
      1 O         139.3145  146.0897  160.9446 O.2     1  UNL1       -0.2668
      2 C         140.0553  144.8308  161.2854 C.2     1  UNL1        0.2806
      3 N         140.7381  144.0463  160.2045 N.am    1  UNL1       -0.2999
      4 H         141.2243  143.2200  160.4282 H       1  UNL1        0.1498
      5 C         140.1134  144.3562  162.7072 C.ar    1  UNL1        0.2014
      6 C         139.2259  144.9803  163.7430 C.ar    1  UNL1        0.0843
      7 C         139.2840  144.5058  165.1648 C.ar    1  UNL1        0.2018
      8 O         138.3964  145.1299  166.2006 O.2     1  UNL1       -0.2864
      9 C         140.2296  143.4072  165.5508 C.ar    1  UNL1        0.0737
     10 C         140.2876  142.9327  166.9726 C.ar    1  UNL1        0.0085
     11 C         141.2332  141.8341  167.3585 C.ar    1  UNL1        0.0299
     12 C         142.1207  141.2101  166.3227 C.ar    1  UNL1        0.1432
     13 F         143.0663  140.1114  166.7088 F       1  UNL1       -0.2041
     14 C         142.0626  141.6845  164.9010 C.ar    1  UNL1        0.0672
     15 C         141.1171  142.7831  164.5150 C.ar    1  UNL1        0.1508
     16 O         141.0590  143.2577  163.0932 O.2     1  UNL1       -0.4486
     17 C         140.6800  144.5208  158.7827 C.3     1  UNL1        0.0747
     18 C         141.7566  145.4172  158.2466 C.3     1  UNL1        0.0369
     19 C         141.6986  145.8917  156.8249 C.3     1  UNL1        0.0741
     20 N         140.5639  145.4698  155.9391 N.3     1  UNL1       -0.2689
     21 C         139.4873  144.5734  156.4752 C.3     1  UNL1        0.0741
     22 C         139.5454  144.0989  157.8970 C.3     1  UNL1        0.0369
     23 C         140.5058  145.9443  154.5173 C.3     1  UNL1        0.0991
     24 C         140.2352  147.3893  154.2194 C.ar    1  UNL1       -0.0061
     25 C         140.7357  147.9984  152.9432 C.ar    1  UNL1       -0.0024
     26 C         140.4651  149.4434  152.6453 C.ar    1  UNL1        0.0062
     27 C         139.6940  150.2792  153.6234 C.ar    1  UNL1        0.0295
     28 S         139.2767  151.7199  153.6025 S.2     1  UNL1       -0.0864
     29 C         138.5183  152.0011  154.8658 C.ar    1  UNL1        0.0354
     30 C         138.4670  150.7343  155.6674 C.ar    1  UNL1        0.0075
     31 C         139.1936  149.6701  154.8995 C.ar    1  UNL1        0.0062
     32 C         139.4642  148.2251  155.1975 C.ar    1  UNL1       -0.0024
@<TRIPOS>BOND
     1     1     2    2
     2     2     3   am
     3     3    17    1
     4    17    18    1
     5    18    19    1
     6    19    20    1
     7    20    23    1
     8    23    24    1
     9    24    25   ar
    10    25    26   ar
    11    26    27   ar
    12    27    28   ar
    13    28    29   ar
    14    29    30   ar
    15    30    31   ar
    16    31    32   ar
    17    20    21    1
    18    21    22    1
    19     2     5    1
    20     5     6   ar
    21     6     7   ar
    22     7     8    2
    23     7     9   ar
    24     9    10   ar
    25    10    11   ar
    26    11    12   ar
    27    12    13    1
    28    12    14   ar
    29    14    15   ar
    30    15    16   ar
    31    22    17    1
    32    16     5   ar
    33    32    24   ar
    34    15     9   ar
    35    31    27   ar
    36     3     4    1
@<TRIPOS>MOLECULE
*****
 32 36 0 0 0
SMALL
GASTEIGER

@<TRIPOS>ATOM
      1 O         143.3432  139.0938  158.3144 O.2     1  UNL1       -0.2668
      2 C         142.8071  137.7369  158.6626 C.2     1  UNL1        0.2806
      3 N         142.4928  137.3981  160.0896 N.am    1  UNL1       -0.2999
      4 H         142.1409  136.5075  160.3181 H       1  UNL1        0.1498
      5 C         142.5852  136.7186  157.5836 C.ar    1  UNL1        0.2014
      6 C         141.5129  136.9349  156.5573 C.ar    1  UNL1        0.0843
      7 C         141.2910  135.9167  155.4784 C.ar    1  UNL1        0.2018
      8 O         140.2187  136.1330  154.4521 O.2     1  UNL1       -0.2864
      9 C         142.1415  134.6821  155.4259 C.ar    1  UNL1        0.0737
     10 C         141.9196  133.6639  154.3470 C.ar    1  UNL1        0.0085
     11 C         142.7700  132.4295  154.2945 C.ar    1  UNL1        0.0299
     12 C         143.8423  132.2132  155.3208 C.ar    1  UNL1        0.1432
     13 F         144.6928  130.9786  155.2682 F       1  UNL1       -0.2041
     14 C         144.0642  133.2314  156.3997 C.ar    1  UNL1        0.0672
     15 C         143.2138  134.4658  156.4522 C.ar    1  UNL1        0.1508
     16 O         143.4356  135.4841  157.5311 O.2     1  UNL1       -0.4486
     17 C         142.7146  138.4163  161.1685 C.3     1  UNL1        0.0747
     18 C         144.0586  138.5337  161.8241 C.3     1  UNL1        0.0369
     19 C         144.2805  139.5519  162.9029 C.3     1  UNL1        0.0741
     20 N         143.1582  140.4527  163.3263 N.3     1  UNL1       -0.2689
     21 C         141.8142  140.3353  162.6708 C.3     1  UNL1        0.0741
     22 C         141.5924  139.3171  161.5918 C.3     1  UNL1        0.0369
     23 C         143.3801  141.4709  164.4052 C.3     1  UNL1        0.0991
     24 C         143.1146  141.1154  165.8381 C.ar    1  UNL1       -0.0061
     25 C         142.9574  139.6781  166.2374 C.ar    1  UNL1       -0.0024
     26 C         142.6919  139.3226  167.6703 C.ar    1  UNL1        0.0062
     27 C         142.5837  140.4043  168.7038 C.ar    1  UNL1        0.0295
     28 S         142.3299  140.3589  170.1815 S.2     1  UNL1       -0.0864
     29 C         142.3303  141.7681  170.6954 C.ar    1  UNL1        0.0354
     30 C         142.5843  142.6845  169.5353 C.ar    1  UNL1        0.0075
     31 C         142.7409  141.8415  168.3044 C.ar    1  UNL1        0.0062
     32 C         143.0064  142.1971  166.8716 C.ar    1  UNL1       -0.0024
@<TRIPOS>BOND
     1     1     2    2
     2     2     3   am
     3     3    17    1
     4    17    18    1
     5    18    19    1
     6    19    20    1
     7    20    23    1
     8    23    24    1
     9    24    25   ar
    10    25    26   ar
    11    26    27   ar
    12    27    28   ar
    13    28    29   ar
    14    29    30   ar
    15    30    31   ar
    16    31    32   ar
    17    20    21    1
    18    21    22    1
    19     2     5    1
    20     5     6   ar
    21     6     7   ar
    22     7     8    2
    23     7     9   ar
    24     9    10   ar
    25    10    11   ar
    26    11    12   ar
    27    12    13    1
    28    12    14   ar
    29    14    15   ar
    30    15    16   ar
    31    22    17    1
    32    16     5   ar
    33    32    24   ar
    34    15     9   ar
    35    31    27   ar
    36     3     4    1
@<TRIPOS>MOLECULE
*****
 32 36 0 0 0
SMALL
GASTEIGER

@<TRIPOS>ATOM
      1 O         144.0956  139.0181  159.8202 O.2     1  UNL1       -0.2668
      2 C         143.2152  140.1712  159.4390 C.2     1  UNL1        0.2806
      3 N         142.3872  140.1019  158.1902 N.am    1  UNL1       -0.2999
      4 H         141.8094  140.8587  157.9401 H       1  UNL1        0.1498
      5 C         143.1628  141.3937  160.3067 C.ar    1  UNL1        0.2014
      6 C         142.4801  142.6349  159.8133 C.ar    1  UNL1        0.0843
      7 C         142.4277  143.8573  160.6809 C.ar    1  UNL1        0.2018
      8 O         141.7451  145.0985  160.1876 O.2     1  UNL1       -0.2864
      9 C         143.0580  143.8387  162.0420 C.ar    1  UNL1        0.0737
     10 C         143.0056  145.0611  162.9096 C.ar    1  UNL1        0.0085
     11 C         143.6359  145.0424  164.2706 C.ar    1  UNL1        0.0299
     12 C         144.3186  143.8012  164.7640 C.ar    1  UNL1        0.1432
     13 F         144.9489  143.7826  166.1251 F       1  UNL1       -0.2041
     14 C         144.3710  142.5788  163.8964 C.ar    1  UNL1        0.0672
     15 C         143.7407  142.5975  162.5354 C.ar    1  UNL1        0.1508
     16 O         143.7931  141.3750  161.6677 O.2     1  UNL1       -0.4486
     17 C         142.4395  138.8794  157.3225 C.3     1  UNL1        0.0747
     18 C         141.3644  137.8387  157.4274 C.3     1  UNL1        0.0369
     19 C         141.4168  136.6162  156.5597 C.3     1  UNL1        0.0741
     20 N         142.5442  136.4346  155.5871 N.3     1  UNL1       -0.2689
     21 C         143.6193  137.4753  155.4822 C.3     1  UNL1        0.0741
     22 C         143.5669  138.6978  156.3500 C.3     1  UNL1        0.0369
     23 C         142.5966  135.2121  154.7194 C.3     1  UNL1        0.0991
     24 C         142.7652  133.8576  155.3414 C.ar    1  UNL1       -0.0061
     25 C         141.8044  132.7548  155.0089 C.ar    1  UNL1       -0.0024
     26 C         141.9731  131.4003  155.6308 C.ar    1  UNL1        0.0062
     27 C         143.1025  131.1485  156.5852 C.ar    1  UNL1        0.0295
     28 S         143.5185  129.9258  157.3480 S.2     1  UNL1       -0.0864
     29 C         144.7363  130.2729  158.1520 C.ar    1  UNL1        0.0354
     30 C         145.0731  131.7102  157.8860 C.ar    1  UNL1        0.0075
     31 C         144.0634  132.2514  156.9177 C.ar    1  UNL1        0.0062
     32 C         143.8947  133.6059  156.2958 C.ar    1  UNL1       -0.0024
@<TRIPOS>BOND
     1     1     2    2
     2     2     3   am
     3     3    17    1
     4    17    18    1
     5    18    19    1
     6    19    20    1
     7    20    23    1
     8    23    24    1
     9    24    25   ar
    10    25    26   ar
    11    26    27   ar
    12    27    28   ar
    13    28    29   ar
    14    29    30   ar
    15    30    31   ar
    16    31    32   ar
    17    20    21    1
    18    21    22    1
    19     2     5    1
    20     5     6   ar
    21     6     7   ar
    22     7     8    2
    23     7     9   ar
    24     9    10   ar
    25    10    11   ar
    26    11    12   ar
    27    12    13    1
    28    12    14   ar
    29    14    15   ar
    30    15    16   ar
    31    22    17    1
    32    16     5   ar
    33    32    24   ar
    34    15     9   ar
    35    31    27   ar
    36     3     4    1
@<TRIPOS>MOLECULE
*****
 32 36 0 0 0
SMALL
GASTEIGER

@<TRIPOS>ATOM
      1 O         142.0427  141.5323  160.3780 O.2     1  UNL1       -0.2668
      2 C         141.3558  142.3073  161.4631 C.2     1  UNL1        0.2806
      3 N         140.5172  143.5016  161.1162 N.am    1  UNL1       -0.2999
      4 H         140.0664  144.0102  161.8284 H       1  UNL1        0.1498
      5 C         141.5075  141.8879  162.8954 C.ar    1  UNL1        0.2014
      6 C         140.8670  142.6954  163.9852 C.ar    1  UNL1        0.0843
      7 C         141.0186  142.2761  165.4173 C.ar    1  UNL1        0.2018
      8 O         140.3781  143.0836  166.5071 O.2     1  UNL1       -0.2864
      9 C         141.8108  141.0492  165.7598 C.ar    1  UNL1        0.0737
     10 C         141.9625  140.6299  167.1919 C.ar    1  UNL1        0.0085
     11 C         142.7547  139.4031  167.5343 C.ar    1  UNL1        0.0299
     12 C         143.3952  138.5956  166.4445 C.ar    1  UNL1        0.1432
     13 F         144.1875  137.3687  166.7870 F       1  UNL1       -0.2041
     14 C         143.2436  139.0149  165.0124 C.ar    1  UNL1        0.0672
     15 C         142.4514  140.2417  164.6700 C.ar    1  UNL1        0.1508
     16 O         142.2997  140.6611  163.2378 O.2     1  UNL1       -0.4486
     17 C         140.3655  143.9210  159.6841 C.3     1  UNL1        0.0747
     18 C         141.2477  144.9948  159.1195 C.3     1  UNL1        0.0369
     19 C         141.0960  145.4142  157.6874 C.3     1  UNL1        0.0741
     20 N         140.0620  144.7597  156.8197 N.3     1  UNL1       -0.2689
     21 C         139.1799  143.6859  157.3842 C.3     1  UNL1        0.0741
     22 C         139.3316  143.2666  158.8165 C.3     1  UNL1        0.0369
     23 C         139.9103  145.1791  155.3876 C.3     1  UNL1        0.0991
     24 C         139.8283  146.6353  155.0371 C.ar    1  UNL1       -0.0061
     25 C         140.5435  147.1568  153.8262 C.ar    1  UNL1       -0.0024
     26 C         140.4614  148.6130  153.4758 C.ar    1  UNL1        0.0062
     27 C         139.6641  149.5477  154.3363 C.ar    1  UNL1        0.0295
     28 S         139.4023  151.0216  154.2422 S.2     1  UNL1       -0.0864
     29 C         138.5252  151.4111  155.3951 C.ar    1  UNL1        0.0354
     30 C         138.2450  150.1779  156.2017 C.ar    1  UNL1        0.0075
     31 C         138.9489  149.0262  155.5473 C.ar    1  UNL1        0.0062
     32 C         139.0310  147.5700  155.8977 C.ar    1  UNL1       -0.0024
@<TRIPOS>BOND
     1     1     2    2
     2     2     3   am
     3     3    17    1
     4    17    18    1
     5    18    19    1
     6    19    20    1
     7    20    23    1
     8    23    24    1
     9    24    25   ar
    10    25    26   ar
    11    26    27   ar
    12    27    28   ar
    13    28    29   ar
    14    29    30   ar
    15    30    31   ar
    16    31    32   ar
    17    20    21    1
    18    21    22    1
    19     2     5    1
    20     5     6   ar
    21     6     7   ar
    22     7     8    2
    23     7     9   ar
    24     9    10   ar
    25    10    11   ar
    26    11    12   ar
    27    12    13    1
    28    12    14   ar
    29    14    15   ar
    30    15    16   ar
    31    22    17    1
    32    16     5   ar
    33    32    24   ar
    34    15     9   ar
    35    31    27   ar
    36     3     4    1
@<TRIPOS>MOLECULE
*****
 32 36 0 0 0
SMALL
GASTEIGER

@<TRIPOS>ATOM
      1 O         141.8597  141.8914  160.6922 O.2     1  UNL1       -0.2668
      2 C         140.8527  142.4964  161.6249 C.2     1  UNL1        0.2806
      3 N         139.8947  143.5357  161.1227 N.am    1  UNL1       -0.2999
      4 H         139.2338  143.9328  161.7348 H       1  UNL1        0.1498
      5 C         140.8036  142.0621  163.0599 C.ar    1  UNL1        0.2014
      6 C         141.8731  142.5040  164.0142 C.ar    1  UNL1        0.0843
      7 C         141.8241  142.0698  165.4491 C.ar    1  UNL1        0.2018
      8 O         142.8936  142.5117  166.4034 O.2     1  UNL1       -0.2864
      9 C         140.7054  141.1936  165.9297 C.ar    1  UNL1        0.0737
     10 C         140.6563  140.7593  167.3646 C.ar    1  UNL1        0.0085
     11 C         139.5377  139.8832  167.8452 C.ar    1  UNL1        0.0299
     12 C         138.4681  139.4412  166.8908 C.ar    1  UNL1        0.1432
     13 F         137.3495  138.5650  167.3715 F       1  UNL1       -0.2041
     14 C         138.5172  139.8755  165.4559 C.ar    1  UNL1        0.0672
     15 C         139.6358  140.7516  164.9754 C.ar    1  UNL1        0.1508
     16 O         139.6849  141.1859  163.5404 O.2     1  UNL1       -0.4486
     17 C         139.9438  143.9700  159.6878 C.3     1  UNL1        0.0747
     18 C         139.2250  143.1748  158.6385 C.3     1  UNL1        0.0369
     19 C         139.2741  143.6091  157.2036 C.3     1  UNL1        0.0741
     20 N         140.0420  144.8387  156.8180 N.3     1  UNL1       -0.2689
     21 C         140.7608  145.6339  157.8673 C.3     1  UNL1        0.0741
     22 C         140.7117  145.1995  159.3022 C.3     1  UNL1        0.0369
     23 C         140.0911  145.2730  155.3831 C.3     1  UNL1        0.0991
     24 C         139.9516  146.7251  155.0338 C.ar    1  UNL1       -0.0061
     25 C         140.6359  147.2727  153.8165 C.ar    1  UNL1       -0.0024
     26 C         140.4964  148.7248  153.4672 C.ar    1  UNL1        0.0062
     27 C         139.6726  149.6292  154.3352 C.ar    1  UNL1        0.0295
     28 S         139.3551  151.0924  154.2439 S.2     1  UNL1       -0.0864
     29 C         138.4746  151.4490  155.4047 C.ar    1  UNL1        0.0354
     30 C         138.2479  150.2063  156.2135 C.ar    1  UNL1        0.0075
     31 C         138.9883  149.0815  155.5525 C.ar    1  UNL1        0.0062
     32 C         139.1278  147.6295  155.9018 C.ar    1  UNL1       -0.0024
@<TRIPOS>BOND
     1     1     2    2
     2     2     3   am
     3     3    17    1
     4    17    18    1
     5    18    19    1
     6    19    20    1
     7    20    23    1
     8    23    24    1
     9    24    25   ar
    10    25    26   ar
    11    26    27   ar
    12    27    28   ar
    13    28    29   ar
    14    29    30   ar
    15    30    31   ar
    16    31    32   ar
    17    20    21    1
    18    21    22    1
    19     2     5    1
    20     5     6   ar
    21     6     7   ar
    22     7     8    2
    23     7     9   ar
    24     9    10   ar
    25    10    11   ar
    26    11    12   ar
    27    12    13    1
    28    12    14   ar
    29    14    15   ar
    30    15    16   ar
    31    22    17    1
    32    16     5   ar
    33    32    24   ar
    34    15     9   ar
    35    31    27   ar
    36     3     4    1
@<TRIPOS>MOLECULE
*****
 32 36 0 0 0
SMALL
GASTEIGER

@<TRIPOS>ATOM
      1 O         142.4304  138.1800  162.8730 O.2     1  UNL1       -0.2668
      2 C         142.0486  139.6257  162.9920 C.2     1  UNL1        0.2806
      3 N         141.7333  140.4220  161.7605 N.am    1  UNL1       -0.2999
      4 H         141.4827  141.3709  161.8386 H       1  UNL1        0.1498
      5 C         141.9819  140.2752  164.3425 C.ar    1  UNL1        0.2014
      6 C         143.0022  141.3037  164.7312 C.ar    1  UNL1        0.0843
      7 C         142.9357  141.9532  166.0817 C.ar    1  UNL1        0.2018
      8 O         143.9560  142.9817  166.4704 O.2     1  UNL1       -0.2864
      9 C         141.8488  141.5741  167.0435 C.ar    1  UNL1        0.0737
     10 C         141.7822  142.2235  168.3940 C.ar    1  UNL1        0.0085
     11 C         140.6954  141.8444  169.3557 C.ar    1  UNL1        0.0299
     12 C         139.6751  140.8159  168.9670 C.ar    1  UNL1        0.1432
     13 F         138.5882  140.4368  169.9288 F       1  UNL1       -0.2041
     14 C         139.7416  140.1664  167.6165 C.ar    1  UNL1        0.0672
     15 C         140.8285  140.5455  166.6548 C.ar    1  UNL1        0.1508
     16 O         140.8951  139.8961  165.3043 O.2     1  UNL1       -0.4486
     17 C         141.7999  139.7726  160.4101 C.3     1  UNL1        0.0747
     18 C         143.0110  139.9622  159.5456 C.3     1  UNL1        0.0369
     19 C         143.0776  139.3129  158.1951 C.3     1  UNL1        0.0741
     20 N         141.9331  138.4738  157.7090 N.3     1  UNL1       -0.2689
     21 C         140.7220  138.2842  158.5735 C.3     1  UNL1        0.0741
     22 C         140.6554  138.9337  159.9241 C.3     1  UNL1        0.0369
     23 C         141.9996  137.8245  156.3586 C.3     1  UNL1        0.0991
     24 C         142.1168  136.3331  156.2484 C.ar    1  UNL1       -0.0061
     25 C         141.1953  135.5734  155.3409 C.ar    1  UNL1       -0.0024
     26 C         141.3124  134.0821  155.2307 C.ar    1  UNL1        0.0062
     27 C         142.3510  133.3504  156.0281 C.ar    1  UNL1        0.0295
     28 S         142.7008  131.8950  156.1251 S.2     1  UNL1       -0.0864
     29 C         143.8386  131.7552  157.0926 C.ar    1  UNL1        0.0354
     30 C         144.1919  133.1242  157.5936 C.ar    1  UNL1        0.0075
     31 C         143.2725  134.1101  156.9357 C.ar    1  UNL1        0.0062
     32 C         143.1553  135.6014  157.0458 C.ar    1  UNL1       -0.0024
@<TRIPOS>BOND
     1     1     2    2
     2     2     3   am
     3     3    17    1
     4    17    18    1
     5    18    19    1
     6    19    20    1
     7    20    23    1
     8    23    24    1
     9    24    25   ar
    10    25    26   ar
    11    26    27   ar
    12    27    28   ar
    13    28    29   ar
    14    29    30   ar
    15    30    31   ar
    16    31    32   ar
    17    20    21    1
    18    21    22    1
    19     2     5    1
    20     5     6   ar
    21     6     7   ar
    22     7     8    2
    23     7     9   ar
    24     9    10   ar
    25    10    11   ar
    26    11    12   ar
    27    12    13    1
    28    12    14   ar
    29    14    15   ar
    30    15    16   ar
    31    22    17    1
    32    16     5   ar
    33    32    24   ar
    34    15     9   ar
    35    31    27   ar
    36     3     4    1
@<TRIPOS>MOLECULE
*****
 32 36 0 0 0
SMALL
GASTEIGER

@<TRIPOS>ATOM
      1 O         143.4857  138.5743  159.2509 O.2     1  UNL1       -0.2668
      2 C         142.1835  138.1574  158.6341 C.2     1  UNL1        0.2806
      3 N         140.9074  138.8257  159.0526 N.am    1  UNL1       -0.2999
      4 H         140.0527  138.5521  158.6478 H       1  UNL1        0.1498
      5 C         142.1573  137.0722  157.5988 C.ar    1  UNL1        0.2014
      6 C         141.1768  137.1403  156.4657 C.ar    1  UNL1        0.0843
      7 C         141.1505  136.0552  155.4304 C.ar    1  UNL1        0.2018
      8 O         140.1700  136.1233  154.2973 O.2     1  UNL1       -0.2864
      9 C         142.1048  134.9020  155.5283 C.ar    1  UNL1        0.0737
     10 C         142.0786  133.8169  154.4930 C.ar    1  UNL1        0.0085
     11 C         143.0328  132.6637  154.5909 C.ar    1  UNL1        0.0299
     12 C         144.0133  132.5957  155.7240 C.ar    1  UNL1        0.1432
     13 F         144.9676  131.4425  155.8218 F       1  UNL1       -0.2041
     14 C         144.0395  133.6808  156.7593 C.ar    1  UNL1        0.0672
     15 C         143.0853  134.8339  156.6614 C.ar    1  UNL1        0.1508
     16 O         143.1115  135.9191  157.6967 O.2     1  UNL1       -0.4486
     17 C         140.9336  139.9108  160.0879 C.3     1  UNL1        0.0747
     18 C         141.1252  141.3393  159.6724 C.3     1  UNL1        0.0369
     19 C         141.1513  142.4245  160.7076 C.3     1  UNL1        0.0741
     20 N         140.9859  142.0811  162.1584 N.3     1  UNL1       -0.2689
     21 C         140.7943  140.6526  162.5739 C.3     1  UNL1        0.0741
     22 C         140.7681  139.5674  161.5386 C.3     1  UNL1        0.0369
     23 C         141.0120  143.1662  163.1937 C.3     1  UNL1        0.0991
     24 C         141.5567  142.8839  164.5625 C.ar    1  UNL1       -0.0061
     25 C         143.0375  142.7660  164.7708 C.ar    1  UNL1       -0.0024
     26 C         143.5822  142.4838  166.1396 C.ar    1  UNL1        0.0062
     27 C         142.6462  142.3194  167.3001 C.ar    1  UNL1        0.0295
     28 S         142.8888  142.0377  168.7533 S.2     1  UNL1       -0.0864
     29 C         141.5580  141.9816  169.4431 C.ar    1  UNL1        0.0354
     30 C         140.4929  142.2285  168.4163 C.ar    1  UNL1        0.0075
     31 C         141.1654  142.4373  167.0918 C.ar    1  UNL1        0.0062
     32 C         140.6207  142.7196  165.7230 C.ar    1  UNL1       -0.0024
@<TRIPOS>BOND
     1     1     2    2
     2     2     3   am
     3     3    17    1
     4    17    18    1
     5    18    19    1
     6    19    20    1
     7    20    23    1
     8    23    24    1
     9    24    25   ar
    10    25    26   ar
    11    26    27   ar
    12    27    28   ar
    13    28    29   ar
    14    29    30   ar
    15    30    31   ar
    16    31    32   ar
    17    20    21    1
    18    21    22    1
    19     2     5    1
    20     5     6   ar
    21     6     7   ar
    22     7     8    2
    23     7     9   ar
    24     9    10   ar
    25    10    11   ar
    26    11    12   ar
    27    12    13    1
    28    12    14   ar
    29    14    15   ar
    30    15    16   ar
    31    22    17    1
    32    16     5   ar
    33    32    24   ar
    34    15     9   ar
    35    31    27   ar
    36     3     4    1
@<TRIPOS>MOLECULE
*****
 32 36 0 0 0
SMALL
GASTEIGER

@<TRIPOS>ATOM
      1 O         140.7996  142.5222  159.3044 O.2     1  UNL1       -0.2668
      2 C         140.1464  143.8721  159.2724 C.2     1  UNL1        0.2806
      3 N         139.4425  144.3938  160.4900 N.am    1  UNL1       -0.2999
      4 H         139.0138  145.2798  160.4690 H       1  UNL1        0.1498
      5 C         140.1970  144.7004  158.0228 C.ar    1  UNL1        0.2014
      6 C         140.9427  144.2003  156.8213 C.ar    1  UNL1        0.0843
      7 C         140.9933  145.0285  155.5717 C.ar    1  UNL1        0.2018
      8 O         141.7391  144.5284  154.3701 O.2     1  UNL1       -0.2864
      9 C         140.2982  146.3569  155.5237 C.ar    1  UNL1        0.0737
     10 C         140.3488  147.1851  154.2741 C.ar    1  UNL1        0.0085
     11 C         139.6537  148.5135  154.2261 C.ar    1  UNL1        0.0299
     12 C         138.9080  149.0136  155.4277 C.ar    1  UNL1        0.1432
     13 F         138.2129  150.3420  155.3797 F       1  UNL1       -0.2041
     14 C         138.8574  148.1854  156.6773 C.ar    1  UNL1        0.0672
     15 C         139.5525  146.8570  156.7252 C.ar    1  UNL1        0.1508
     16 O         139.5019  146.0287  157.9749 O.2     1  UNL1       -0.4486
     17 C         139.3919  143.5656  161.7396 C.3     1  UNL1        0.0747
     18 C         138.2703  142.5918  161.9490 C.3     1  UNL1        0.0369
     19 C         138.2197  141.7636  163.1986 C.3     1  UNL1        0.0741
     20 N         139.2907  141.9091  164.2388 N.3     1  UNL1       -0.2689
     21 C         140.4122  142.8829  164.0293 C.3     1  UNL1        0.0741
     22 C         140.4628  143.7111  162.7796 C.3     1  UNL1        0.0369
     23 C         139.2400  141.0809  165.4883 C.3     1  UNL1        0.0991
     24 C         140.3187  141.2160  166.5219 C.ar    1  UNL1       -0.0061
     25 C         141.5043  140.2976  166.4930 C.ar    1  UNL1       -0.0024
     26 C         142.5830  140.4327  167.5266 C.ar    1  UNL1        0.0062
     27 C         142.4760  141.4861  168.5890 C.ar    1  UNL1        0.0295
     28 S         143.3760  141.8550  169.7309 S.2     1  UNL1       -0.0864
     29 C         142.7466  143.0014  170.4656 C.ar    1  UNL1        0.0354
     30 C         141.4576  143.3410  169.7776 C.ar    1  UNL1        0.0075
     31 C         141.2905  142.4045  168.6178 C.ar    1  UNL1        0.0062
     32 C         140.2118  142.2695  167.5843 C.ar    1  UNL1       -0.0024
@<TRIPOS>BOND
     1     1     2    2
     2     2     3   am
     3     3    17    1
     4    17    18    1
     5    18    19    1
     6    19    20    1
     7    20    23    1
     8    23    24    1
     9    24    25   ar
    10    25    26   ar
    11    26    27   ar
    12    27    28   ar
    13    28    29   ar
    14    29    30   ar
    15    30    31   ar
    16    31    32   ar
    17    20    21    1
    18    21    22    1
    19     2     5    1
    20     5     6   ar
    21     6     7   ar
    22     7     8    2
    23     7     9   ar
    24     9    10   ar
    25    10    11   ar
    26    11    12   ar
    27    12    13    1
    28    12    14   ar
    29    14    15   ar
    30    15    16   ar
    31    22    17    1
    32    16     5   ar
    33    32    24   ar
    34    15     9   ar
    35    31    27   ar
    36     3     4    1
