@<TRIPOS>MOLECULE
*****
 46 50 0 0 0
SMALL
GASTEIGER

@<TRIPOS>ATOM
      1 C         141.7824  140.6256  158.6675 C.ar    1  UNL1        0.0375
      2 C         141.0632  139.9686  157.5269 C.ar    1  UNL1        0.1031
      3 N         141.8324  139.1749  156.5128 N.ar    1  UNL1       -0.2121
      4 C         143.3208  139.0382  156.6394 C.ar    1  UNL1        0.2200
      5 N         144.0400  139.6951  157.7800 N.ar    1  UNL1       -0.2163
      6 C         143.2707  140.4889  158.7941 C.ar    1  UNL1        0.0836
      7 C         140.6664  142.8524  159.4064 C.ar    1  UNL1        0.1387
      8 C         139.8972  143.6460  160.4204 C.ar    1  UNL1        0.0369
      9 C         139.4747  143.0065  161.7098 C.ar    1  UNL1        0.0031
     10 C         139.8215  141.5734  161.9852 C.ar    1  UNL1       -0.0001
     11 C         140.5907  140.7798  160.9711 C.ar    1  UNL1        0.0031
     12 C         141.0131  141.4193  159.6817 C.ar    1  UNL1        0.0367
     13 C         139.3990  140.9339  163.2746 C.ar    1  UNL1       -0.0039
     14 C         138.8321  139.5452  163.2726 C.ar    1  UNL1       -0.0003
     15 C         138.4096  138.9057  164.5620 C.ar    1  UNL1        0.0011
     16 C         138.5541  139.6549  165.8534 C.ar    1  UNL1        0.0137
     17 C         139.1210  141.0436  165.8554 C.ar    1  UNL1       -0.0031
     18 C         139.5434  141.6831  164.5660 C.ar    1  UNL1       -0.0218
     19 C         140.1103  143.0719  164.5680 C.3     1  UNL1        0.0310
     20 C         138.1316  139.0154  167.1428 C.2     1  UNL1        0.0729
     21 O         137.0657  137.9600  167.1426 O.co2   1  UNL1       -0.5446
     22 O         138.7750  139.4312  168.4323 O.co2   1  UNL1       -0.5446
     23 C         142.3989  144.2178  158.0337 C.3     1  UNL1        0.2525
     24 O         141.0889  143.4919  158.1170 O.3     1  UNL1       -0.4714
     25 N         144.0900  138.2445  155.6253 N.pl3   1  UNL1       -0.2747
     26 C         143.9781  136.7488  155.6016 C.3     1  UNL1        0.1151
     27 C         144.9710  138.9464  154.6349 C.3     1  UNL1        0.1151
     28 C         143.9899  141.1459  159.9348 C.3     1  UNL1        0.1428
     29 N         143.8549  140.5950  161.3235 N.am    1  UNL1       -0.2380
     30 C         144.0419  139.1620  161.7255 C.2     1  UNL1        0.4055
     31 O         144.3967  138.0283  160.8096 O.2     1  UNL1       -0.2262
     32 O         143.8118  139.0617  163.2044 O.3     1  UNL1       -0.4320
     33 C         143.4825  140.4327  163.7163 C.3     1  UNL1        0.2107
     34 C         143.5092  141.3803  162.5538 C.3     1  UNL1        0.1233
     35 C         143.2378  142.8544  162.6115 C.3     1  UNL1        0.0258
     36 C         143.1798  140.7929  165.1405 C.ar    1  UNL1        0.0192
     37 C         142.5085  139.7973  166.0396 C.ar    1  UNL1        0.0024
     38 C         142.2057  140.1575  167.4638 C.ar    1  UNL1        0.0370
     39 C         142.5743  141.5133  167.9891 C.ar    1  UNL1        0.1468
     40 C         143.2457  142.5089  167.0902 C.ar    1  UNL1        0.0370
     41 C         143.5484  142.1487  165.6659 C.ar    1  UNL1        0.0024
     42 O         142.2716  141.8735  169.4135 O.3     1  UNL1       -0.4045
     43 C         141.5200  143.1337  169.7249 C.3     1  UNL1        0.5753
     44 F         140.7685  144.3939  170.0363 F       1  UNL1       -0.1328
     45 F         142.6827  143.6271  170.5339 F       1  UNL1       -0.1328
     46 F         140.3573  142.6403  168.9158 F       1  UNL1       -0.1328
@<TRIPOS>UNITY_ATOM_ATTR
21 1
charge -1
@<TRIPOS>BOND
     1    23    24    1
     2    24     7    1
     3     7     8   ar
     4     8     9   ar
     5     9    10   ar
     6    10    13    1
     7    13    14   ar
     8    14    15   ar
     9    15    16   ar
    10    16    20    1
    11    20    21   ar
    12    20    22   ar
    13    16    17   ar
    14    17    18   ar
    15    18    19    1
    16    10    11   ar
    17    11    12   ar
    18    12     1    1
    19     1     2   ar
    20     2     3   ar
    21     3     4   ar
    22     4    25    1
    23    25    26    1
    24    25    27    1
    25     4     5   ar
    26     5     6   ar
    27     6    28    1
    28    28    29    1
    29    29    30   am
    30    30    31    2
    31    30    32    1
    32    32    33    1
    33    33    36    1
    34    36    37   ar
    35    37    38   ar
    36    38    39   ar
    37    39    42    1
    38    42    43    1
    39    43    44    1
    40    43    45    1
    41    43    46    1
    42    39    40   ar
    43    40    41   ar
    44    33    34    1
    45    34    35    1
    46    12     7   ar
    47     6     1   ar
    48    34    29    1
    49    18    13   ar
    50    41    36   ar
@<TRIPOS>MOLECULE
*****
 46 50 0 0 0
SMALL
GASTEIGER

@<TRIPOS>ATOM
      1 C         142.4721  142.6562  159.3582 C.ar    1  UNL1        0.0375
      2 C         141.9568  142.3451  157.9842 C.ar    1  UNL1        0.1031
      3 N         142.9027  141.8855  156.9147 N.ar    1  UNL1       -0.2121
      4 C         144.3641  141.7370  157.2190 C.ar    1  UNL1        0.2200
      5 N         144.8794  142.0481  158.5930 N.ar    1  UNL1       -0.2163
      6 C         143.9334  142.5077  159.6626 C.ar    1  UNL1        0.0836
      7 C         141.0539  144.5393  160.4503 C.ar    1  UNL1        0.1387
      8 C         140.1080  144.9988  161.5198 C.ar    1  UNL1        0.0369
      9 C         139.6342  144.0348  162.5668 C.ar    1  UNL1        0.0031
     10 C         140.1064  142.6113  162.5443 C.ar    1  UNL1       -0.0001
     11 C         141.0524  142.1518  161.4748 C.ar    1  UNL1        0.0031
     12 C         141.5261  143.1158  160.4277 C.ar    1  UNL1        0.0367
     13 C         139.6327  141.6473  163.5914 C.ar    1  UNL1       -0.0039
     14 C         139.0949  140.3065  163.1880 C.ar    1  UNL1       -0.0003
     15 C         138.6211  139.3425  164.2350 C.ar    1  UNL1        0.0011
     16 C         138.6852  139.7193  165.6854 C.ar    1  UNL1        0.0137
     17 C         139.2230  141.0602  166.0888 C.ar    1  UNL1       -0.0031
     18 C         139.6968  142.0242  165.0418 C.ar    1  UNL1       -0.0218
     19 C         140.2346  143.3651  165.4453 C.3     1  UNL1        0.0310
     20 C         138.2115  138.7553  166.7325 C.2     1  UNL1        0.0729
     21 O         138.1798  139.1694  168.1738 O.co2   1  UNL1       -0.5446
     22 O         137.7694  137.3773  166.3382 O.co2   1  UNL1       -0.5446
     23 C         140.6716  145.7899  158.2053 C.3     1  UNL1        0.2525
     24 O         141.5277  145.5033  159.4032 O.3     1  UNL1       -0.4714
     25 N         145.3100  141.2774  156.1495 N.pl3   1  UNL1       -0.2747
     26 C         146.4582  142.1505  155.7380 C.3     1  UNL1        0.1151
     27 C         145.1076  139.9448  155.4914 C.3     1  UNL1        0.1151
     28 C         144.4487  142.8187  161.0365 C.3     1  UNL1        0.1428
     29 N         144.1509  141.8910  162.1770 N.am    1  UNL1       -0.2380
     30 C         144.1969  140.3925  162.1295 C.2     1  UNL1        0.4055
     31 O         144.5486  139.5585  160.9334 O.2     1  UNL1       -0.2262
     32 O         143.8293  139.8742  163.4884 O.3     1  UNL1       -0.4320
     33 C         143.5562  141.0525  164.3756 C.3     1  UNL1        0.2107
     34 C         143.7550  142.2989  163.5651 C.3     1  UNL1        0.1233
     35 C         143.5874  143.7062  164.0564 C.3     1  UNL1        0.0258
     36 C         143.1549  140.9946  165.8197 C.ar    1  UNL1        0.0192
     37 C         142.5922  139.7272  166.3915 C.ar    1  UNL1        0.0024
     38 C         142.1908  139.6692  167.8356 C.ar    1  UNL1        0.0370
     39 C         142.3521  140.8787  168.7080 C.ar    1  UNL1        0.1468
     40 C         142.9149  142.1462  168.1362 C.ar    1  UNL1        0.0370
     41 C         143.3162  142.2041  166.6921 C.ar    1  UNL1        0.0024
     42 O         141.9508  140.8208  170.1521 O.3     1  UNL1       -0.4045
     43 C         140.9463  141.7957  170.6911 C.3     1  UNL1        0.5753
     44 F         139.9418  142.7707  171.2300 F       1  UNL1       -0.1328
     45 F         141.9454  142.2632  171.7075 F       1  UNL1       -0.1328
     46 F         139.9472  141.3282  169.6747 F       1  UNL1       -0.1328
@<TRIPOS>UNITY_ATOM_ATTR
21 1
charge -1
@<TRIPOS>BOND
     1    23    24    1
     2    24     7    1
     3     7     8   ar
     4     8     9   ar
     5     9    10   ar
     6    10    13    1
     7    13    14   ar
     8    14    15   ar
     9    15    16   ar
    10    16    20    1
    11    20    21   ar
    12    20    22   ar
    13    16    17   ar
    14    17    18   ar
    15    18    19    1
    16    10    11   ar
    17    11    12   ar
    18    12     1    1
    19     1     2   ar
    20     2     3   ar
    21     3     4   ar
    22     4    25    1
    23    25    26    1
    24    25    27    1
    25     4     5   ar
    26     5     6   ar
    27     6    28    1
    28    28    29    1
    29    29    30   am
    30    30    31    2
    31    30    32    1
    32    32    33    1
    33    33    36    1
    34    36    37   ar
    35    37    38   ar
    36    38    39   ar
    37    39    42    1
    38    42    43    1
    39    43    44    1
    40    43    45    1
    41    43    46    1
    42    39    40   ar
    43    40    41   ar
    44    33    34    1
    45    34    35    1
    46    12     7   ar
    47     6     1   ar
    48    34    29    1
    49    18    13   ar
    50    41    36   ar
@<TRIPOS>MOLECULE
*****
 46 50 0 0 0
SMALL
GASTEIGER

@<TRIPOS>ATOM
      1 C         141.6743  141.4557  158.9281 C.ar    1  UNL1        0.0375
      2 C         140.8022  141.2882  157.7193 C.ar    1  UNL1        0.1031
      3 N         140.5906  142.4397  156.7816 N.ar    1  UNL1       -0.2121
      4 C         141.2513  143.7588  157.0527 C.ar    1  UNL1        0.2200
      5 N         142.1235  143.9264  158.2615 N.ar    1  UNL1       -0.2163
      6 C         142.3350  142.7748  159.1992 C.ar    1  UNL1        0.0836
      7 C         142.8887  139.2398  159.5322 C.ar    1  UNL1        0.1387
      8 C         143.1002  138.0883  160.4699 C.ar    1  UNL1        0.0369
      9 C         142.3088  138.0012  161.7412 C.ar    1  UNL1        0.0031
     10 C         141.3059  139.0655  162.0747 C.ar    1  UNL1       -0.0001
     11 C         141.0944  140.2170  161.1371 C.ar    1  UNL1        0.0031
     12 C         141.8859  140.3042  159.8658 C.ar    1  UNL1        0.0367
     13 C         140.5145  138.9784  163.3460 C.ar    1  UNL1       -0.0039
     14 C         141.1306  139.4090  164.6440 C.ar    1  UNL1       -0.0003
     15 C         140.3392  139.3218  165.9153 C.ar    1  UNL1        0.0011
     16 C         138.9317  138.8041  165.8885 C.ar    1  UNL1        0.0137
     17 C         138.3155  138.3735  164.5904 C.ar    1  UNL1       -0.0031
     18 C         139.1070  138.4607  163.3192 C.ar    1  UNL1       -0.0218
     19 C         138.4908  138.0300  162.0211 C.3     1  UNL1        0.0310
     20 C         138.1402  138.7169  167.1597 C.2     1  UNL1        0.0729
     21 O         136.9036  137.8700  167.2167 O.co2   1  UNL1       -0.5446
     22 O         138.5855  139.4768  168.3739 O.co2   1  UNL1       -0.5446
     23 C         143.1927  138.6311  157.0249 C.3     1  UNL1        0.2525
     24 O         143.6802  139.3270  158.2610 O.3     1  UNL1       -0.4714
     25 N         141.0398  144.9103  156.1151 N.pl3   1  UNL1       -0.2747
     26 C         141.5128  144.8175  154.6946 C.3     1  UNL1        0.1151
     27 C         140.3552  146.1546  156.5978 C.3     1  UNL1        0.1151
     28 C         143.2072  142.9424  160.4080 C.3     1  UNL1        0.1428
     29 N         142.5940  143.2839  161.7338 N.am    1  UNL1       -0.2380
     30 C         141.5754  144.3561  161.9840 C.2     1  UNL1        0.4055
     31 O         140.9910  145.2751  160.9525 O.2     1  UNL1       -0.2262
     32 O         141.2436  144.3480  163.4469 O.3     1  UNL1       -0.4320
     33 C         142.0573  143.2707  164.1007 C.3     1  UNL1        0.2107
     34 C         142.8919  142.6131  163.0419 C.3     1  UNL1        0.1233
     35 C         143.8552  141.4830  163.2540 C.3     1  UNL1        0.0258
     36 C         142.0396  142.9138  165.5574 C.ar    1  UNL1        0.0192
     37 C         140.7394  142.8757  166.3046 C.ar    1  UNL1        0.0024
     38 C         140.7216  142.5188  167.7613 C.ar    1  UNL1        0.0370
     39 C         142.0040  142.1999  168.4711 C.ar    1  UNL1        0.1468
     40 C         143.3043  142.2380  167.7240 C.ar    1  UNL1        0.0370
     41 C         143.3220  142.5949  166.2672 C.ar    1  UNL1        0.0024
     42 O         141.9863  141.8430  169.9279 O.3     1  UNL1       -0.4045
     43 C         141.1520  140.6926  170.4081 C.3     1  UNL1        0.5753
     44 F         140.3178  139.5422  170.8883 F       1  UNL1       -0.1328
     45 F         141.6969  139.8364  169.3036 F       1  UNL1       -0.1328
     46 F         140.6071  141.5488  171.5126 F       1  UNL1       -0.1328
@<TRIPOS>UNITY_ATOM_ATTR
21 1
charge -1
@<TRIPOS>BOND
     1    23    24    1
     2    24     7    1
     3     7     8   ar
     4     8     9   ar
     5     9    10   ar
     6    10    13    1
     7    13    14   ar
     8    14    15   ar
     9    15    16   ar
    10    16    20    1
    11    20    21   ar
    12    20    22   ar
    13    16    17   ar
    14    17    18   ar
    15    18    19    1
    16    10    11   ar
    17    11    12   ar
    18    12     1    1
    19     1     2   ar
    20     2     3   ar
    21     3     4   ar
    22     4    25    1
    23    25    26    1
    24    25    27    1
    25     4     5   ar
    26     5     6   ar
    27     6    28    1
    28    28    29    1
    29    29    30   am
    30    30    31    2
    31    30    32    1
    32    32    33    1
    33    33    36    1
    34    36    37   ar
    35    37    38   ar
    36    38    39   ar
    37    39    42    1
    38    42    43    1
    39    43    44    1
    40    43    45    1
    41    43    46    1
    42    39    40   ar
    43    40    41   ar
    44    33    34    1
    45    34    35    1
    46    12     7   ar
    47     6     1   ar
    48    34    29    1
    49    18    13   ar
    50    41    36   ar
@<TRIPOS>MOLECULE
*****
 46 50 0 0 0
SMALL
GASTEIGER

@<TRIPOS>ATOM
      1 C         140.5321  142.4834  158.7536 C.ar    1  UNL1        0.0375
      2 C         139.5703  142.1245  157.6598 C.ar    1  UNL1        0.1031
      3 N         139.0306  143.1925  156.7555 N.ar    1  UNL1       -0.2121
      4 C         139.4526  144.6195  156.9448 C.ar    1  UNL1        0.2200
      5 N         140.4144  144.9783  158.0385 N.ar    1  UNL1       -0.2163
      6 C         140.9541  143.9102  158.9429 C.ar    1  UNL1        0.0836
      7 C         142.2731  140.6182  159.2437 C.ar    1  UNL1        0.1387
      8 C         142.8128  139.5502  160.1481 C.ar    1  UNL1        0.0369
      9 C         142.1512  139.2791  161.4667 C.ar    1  UNL1        0.0031
     10 C         140.9499  140.0762  161.8810 C.ar    1  UNL1       -0.0001
     11 C         140.4103  141.1442  160.9766 C.ar    1  UNL1        0.0031
     12 C         141.0718  141.4152  159.6580 C.ar    1  UNL1        0.0367
     13 C         140.2883  139.8051  163.1997 C.ar    1  UNL1       -0.0039
     14 C         138.7920  139.8112  163.3033 C.ar    1  UNL1       -0.0003
     15 C         138.1304  139.5402  164.6219 C.ar    1  UNL1        0.0011
     16 C         138.9651  139.2631  165.8370 C.ar    1  UNL1        0.0137
     17 C         140.4615  139.2570  165.7333 C.ar    1  UNL1       -0.0031
     18 C         141.1231  139.5280  164.4147 C.ar    1  UNL1       -0.0218
     19 C         142.6196  139.5220  164.3111 C.3     1  UNL1        0.0310
     20 C         138.3036  138.9920  167.1556 C.2     1  UNL1        0.0729
     21 O         137.0721  138.1377  167.2153 O.co2   1  UNL1       -0.5446
     22 O         138.8734  139.5754  168.4145 O.co2   1  UNL1       -0.5446
     23 C         144.3878  141.2584  157.8768 C.3     1  UNL1        0.2525
     24 O         142.9347  140.8892  157.9251 O.3     1  UNL1       -0.4714
     25 N         138.9129  145.6875  156.0404 N.pl3   1  UNL1       -0.2747
     26 C         137.9120  145.3368  154.9796 C.3     1  UNL1        0.1151
     27 C         139.3740  147.1063  156.1968 C.3     1  UNL1        0.1151
     28 C         141.9159  144.2691  160.0366 C.3     1  UNL1        0.1428
     29 N         141.4678  144.2429  161.4679 N.am    1  UNL1       -0.2380
     30 C         140.2711  144.9515  162.0301 C.2     1  UNL1        0.4055
     31 O         139.3126  145.8105  161.2598 O.2     1  UNL1       -0.2262
     32 O         140.2013  144.6501  163.4979 O.3     1  UNL1       -0.4320
     33 C         141.3548  143.7553  163.8428 C.3     1  UNL1        0.2107
     34 C         142.1375  143.5037  162.5881 C.3     1  UNL1        0.1233
     35 C         143.3729  142.6608  162.4738 C.3     1  UNL1        0.0258
     36 C         141.6702  143.2083  165.2033 C.ar    1  UNL1        0.0192
     37 C         143.0949  142.9533  165.5975 C.ar    1  UNL1        0.0024
     38 C         143.4103  142.4063  166.9580 C.ar    1  UNL1        0.0370
     39 C         142.3010  142.1141  167.9245 C.ar    1  UNL1        0.1468
     40 C         140.8763  142.3690  167.5304 C.ar    1  UNL1        0.0370
     41 C         140.5609  142.9161  166.1698 C.ar    1  UNL1        0.0024
     42 O         142.6164  141.5670  169.2851 O.3     1  UNL1       -0.4045
     43 C         142.1159  140.2099  169.6823 C.3     1  UNL1        0.5753
     44 F         141.6154  138.8528  170.0795 F       1  UNL1       -0.1328
     45 F         141.4920  140.8000  170.9121 F       1  UNL1       -0.1328
     46 F         142.7399  139.6199  168.4525 F       1  UNL1       -0.1328
@<TRIPOS>UNITY_ATOM_ATTR
21 1
charge -1
@<TRIPOS>BOND
     1    23    24    1
     2    24     7    1
     3     7     8   ar
     4     8     9   ar
     5     9    10   ar
     6    10    13    1
     7    13    14   ar
     8    14    15   ar
     9    15    16   ar
    10    16    20    1
    11    20    21   ar
    12    20    22   ar
    13    16    17   ar
    14    17    18   ar
    15    18    19    1
    16    10    11   ar
    17    11    12   ar
    18    12     1    1
    19     1     2   ar
    20     2     3   ar
    21     3     4   ar
    22     4    25    1
    23    25    26    1
    24    25    27    1
    25     4     5   ar
    26     5     6   ar
    27     6    28    1
    28    28    29    1
    29    29    30   am
    30    30    31    2
    31    30    32    1
    32    32    33    1
    33    33    36    1
    34    36    37   ar
    35    37    38   ar
    36    38    39   ar
    37    39    42    1
    38    42    43    1
    39    43    44    1
    40    43    45    1
    41    43    46    1
    42    39    40   ar
    43    40    41   ar
    44    33    34    1
    45    34    35    1
    46    12     7   ar
    47     6     1   ar
    48    34    29    1
    49    18    13   ar
    50    41    36   ar
@<TRIPOS>MOLECULE
*****
 46 50 0 0 0
SMALL
GASTEIGER

@<TRIPOS>ATOM
      1 C         142.1403  141.6018  158.8573 C.ar    1  UNL1        0.0375
      2 C         142.8902  140.5511  158.0933 C.ar    1  UNL1        0.1031
      3 N         144.2886  140.8207  157.6227 N.ar    1  UNL1       -0.2121
      4 C         144.9373  142.1411  157.9160 C.ar    1  UNL1        0.2200
      5 N         144.1874  143.1917  158.6801 N.ar    1  UNL1       -0.2163
      6 C         142.7888  142.9221  159.1507 C.ar    1  UNL1        0.0836
      7 C         139.5855  141.5227  158.3916 C.ar    1  UNL1        0.1387
      8 C         138.1870  141.2531  158.8622 C.ar    1  UNL1        0.0369
      9 C         137.9448  140.7928  160.2692 C.ar    1  UNL1        0.0031
     10 C         139.1010  140.6022  161.2055 C.ar    1  UNL1       -0.0001
     11 C         140.4995  140.8719  160.7348 C.ar    1  UNL1        0.0031
     12 C         140.7417  141.3321  159.3279 C.ar    1  UNL1        0.0367
     13 C         138.8588  140.1419  162.6124 C.ar    1  UNL1       -0.0039
     14 C         138.2719  141.0858  163.6198 C.ar    1  UNL1       -0.0003
     15 C         138.0297  140.6255  165.0267 C.ar    1  UNL1        0.0011
     16 C         138.3744  139.2214  165.4263 C.ar    1  UNL1        0.0137
     17 C         138.9613  138.2776  164.4190 C.ar    1  UNL1       -0.0031
     18 C         139.2035  138.7379  163.0120 C.ar    1  UNL1       -0.0218
     19 C         139.7904  137.7940  162.0047 C.3     1  UNL1        0.0310
     20 C         138.1322  138.7612  166.8333 C.2     1  UNL1        0.0729
     21 O         137.1304  137.6786  167.1063 O.co2   1  UNL1       -0.5446
     22 O         138.8917  139.3834  167.9672 O.co2   1  UNL1       -0.5446
     23 C         139.6951  143.4362  156.6376 C.3     1  UNL1        0.2525
     24 O         139.8277  141.9830  156.9847 O.3     1  UNL1       -0.4714
     25 N         146.3358  142.4107  157.4454 N.pl3   1  UNL1       -0.2747
     26 C         147.2875  143.1723  158.3195 C.3     1  UNL1        0.1151
     27 C         146.7825  141.9186  156.1007 C.3     1  UNL1        0.1151
     28 C         142.0389  143.9728  159.9147 C.3     1  UNL1        0.1428
     29 N         141.6231  143.7155  161.3328 N.am    1  UNL1       -0.2380
     30 C         140.3769  144.2270  161.9927 C.2     1  UNL1        0.4055
     31 O         139.3279  145.0855  161.3505 O.2     1  UNL1       -0.2262
     32 O         140.3640  143.7293  163.4077 O.3     1  UNL1       -0.4320
     33 C         141.6022  142.9101  163.6222 C.3     1  UNL1        0.2107
     34 C         142.3803  142.9017  162.3399 C.3     1  UNL1        0.1233
     35 C         143.6864  142.2022  162.1056 C.3     1  UNL1        0.0258
     36 C         141.9936  142.2206  164.8955 C.ar    1  UNL1        0.0192
     37 C         141.5852  140.7970  165.1337 C.ar    1  UNL1        0.0024
     38 C         141.9765  140.1075  166.4069 C.ar    1  UNL1        0.0370
     39 C         142.7763  140.8415  167.4422 C.ar    1  UNL1        0.1468
     40 C         143.1847  142.2651  167.2040 C.ar    1  UNL1        0.0370
     41 C         142.7933  142.9546  165.9307 C.ar    1  UNL1        0.0024
     42 O         143.1677  140.1519  168.7155 O.3     1  UNL1       -0.4045
     43 C         142.1120  139.5714  169.6091 C.3     1  UNL1        0.5753
     44 F         141.0563  138.9908  170.5026 F       1  UNL1       -0.1328
     45 F         142.8245  138.2515  169.5934 F       1  UNL1       -0.1328
     46 F         141.3995  140.8912  169.6248 F       1  UNL1       -0.1328
@<TRIPOS>UNITY_ATOM_ATTR
21 1
charge -1
@<TRIPOS>BOND
     1    23    24    1
     2    24     7    1
     3     7     8   ar
     4     8     9   ar
     5     9    10   ar
     6    10    13    1
     7    13    14   ar
     8    14    15   ar
     9    15    16   ar
    10    16    20    1
    11    20    21   ar
    12    20    22   ar
    13    16    17   ar
    14    17    18   ar
    15    18    19    1
    16    10    11   ar
    17    11    12   ar
    18    12     1    1
    19     1     2   ar
    20     2     3   ar
    21     3     4   ar
    22     4    25    1
    23    25    26    1
    24    25    27    1
    25     4     5   ar
    26     5     6   ar
    27     6    28    1
    28    28    29    1
    29    29    30   am
    30    30    31    2
    31    30    32    1
    32    32    33    1
    33    33    36    1
    34    36    37   ar
    35    37    38   ar
    36    38    39   ar
    37    39    42    1
    38    42    43    1
    39    43    44    1
    40    43    45    1
    41    43    46    1
    42    39    40   ar
    43    40    41   ar
    44    33    34    1
    45    34    35    1
    46    12     7   ar
    47     6     1   ar
    48    34    29    1
    49    18    13   ar
    50    41    36   ar
@<TRIPOS>MOLECULE
*****
 46 50 0 0 0
SMALL
GASTEIGER

@<TRIPOS>ATOM
      1 C         139.8279  139.9004  161.6605 C.ar    1  UNL1        0.0375
      2 C         138.4219  139.5131  161.3096 C.ar    1  UNL1        0.1031
      3 N         137.8085  139.9960  160.0288 N.ar    1  UNL1       -0.2121
      4 C         138.6010  140.8662  159.0989 C.ar    1  UNL1        0.2200
      5 N         140.0070  141.2535  159.4498 N.ar    1  UNL1       -0.2163
      6 C         140.6205  140.7706  160.7307 C.ar    1  UNL1        0.0836
      7 C         141.2342  138.1443  162.9600 C.ar    1  UNL1        0.1387
      8 C         141.8475  137.6615  164.2408 C.ar    1  UNL1        0.0369
      9 C         141.6681  138.4518  165.5030 C.ar    1  UNL1        0.0031
     10 C         140.8753  139.7250  165.4844 C.ar    1  UNL1       -0.0001
     11 C         140.2619  140.2079  164.2036 C.ar    1  UNL1        0.0031
     12 C         140.4414  139.4175  162.9414 C.ar    1  UNL1        0.0367
     13 C         140.6959  140.5154  166.7466 C.ar    1  UNL1       -0.0039
     14 C         139.7382  140.0408  167.7990 C.ar    1  UNL1       -0.0003
     15 C         139.5588  140.8311  169.0612 C.ar    1  UNL1        0.0011
     16 C         140.3371  142.0960  169.2711 C.ar    1  UNL1        0.0137
     17 C         141.2949  142.5706  168.2187 C.ar    1  UNL1       -0.0031
     18 C         141.4743  141.7803  166.9565 C.ar    1  UNL1       -0.0218
     19 C         142.4321  142.2549  165.9042 C.3     1  UNL1        0.0310
     20 C         140.1577  142.8864  170.5333 C.2     1  UNL1        0.0729
     21 O         139.8045  144.3425  170.4626 O.co2   1  UNL1       -0.5446
     22 O         140.3315  142.2207  171.8661 O.co2   1  UNL1       -0.5446
     23 C         142.6630  137.5145  160.8836 C.3     1  UNL1        0.2525
     24 O         141.4136  137.3540  161.6978 O.3     1  UNL1       -0.4714
     25 N         137.9876  141.3491  157.8181 N.pl3   1  UNL1       -0.2747
     26 C         137.7287  142.8126  157.6155 C.3     1  UNL1        0.1151
     27 C         137.6330  140.3684  156.7399 C.3     1  UNL1        0.1151
     28 C         142.0265  141.1579  161.0816 C.3     1  UNL1        0.1428
     29 N         142.8586  141.9303  160.1012 N.am    1  UNL1       -0.2380
     30 C         143.0166  143.4214  160.0613 C.2     1  UNL1        0.4055
     31 O         142.3705  144.4019  160.9946 O.2     1  UNL1       -0.2262
     32 O         143.9344  143.7599  158.9241 O.3     1  UNL1       -0.4320
     33 C         144.3435  142.4779  158.2612 C.3     1  UNL1        0.2107
     34 C         143.6786  141.3472  158.9888 C.3     1  UNL1        0.1233
     35 C         143.8105  139.8893  158.6614 C.3     1  UNL1        0.0258
     36 C         145.2571  142.3492  157.0786 C.ar    1  UNL1        0.0192
     37 C         144.6997  141.9736  155.7376 C.ar    1  UNL1        0.0024
     38 C         145.6132  141.8449  154.5549 C.ar    1  UNL1        0.0370
     39 C         147.0843  142.0919  154.7132 C.ar    1  UNL1        0.1468
     40 C         147.6418  142.4676  156.0542 C.ar    1  UNL1        0.0370
     41 C         146.7281  142.5962  157.2368 C.ar    1  UNL1        0.0024
     42 O         147.9979  141.9633  153.5305 O.3     1  UNL1       -0.4045
     43 C         149.3216  142.6687  153.5251 C.3     1  UNL1        0.5753
     44 F         150.6454  143.3741  153.5197 F       1  UNL1       -0.1328
     45 F         149.9930  141.4124  153.9951 F       1  UNL1       -0.1328
     46 F         148.6502  143.9250  153.0550 F       1  UNL1       -0.1328
@<TRIPOS>UNITY_ATOM_ATTR
21 1
charge -1
@<TRIPOS>BOND
     1    23    24    1
     2    24     7    1
     3     7     8   ar
     4     8     9   ar
     5     9    10   ar
     6    10    13    1
     7    13    14   ar
     8    14    15   ar
     9    15    16   ar
    10    16    20    1
    11    20    21   ar
    12    20    22   ar
    13    16    17   ar
    14    17    18   ar
    15    18    19    1
    16    10    11   ar
    17    11    12   ar
    18    12     1    1
    19     1     2   ar
    20     2     3   ar
    21     3     4   ar
    22     4    25    1
    23    25    26    1
    24    25    27    1
    25     4     5   ar
    26     5     6   ar
    27     6    28    1
    28    28    29    1
    29    29    30   am
    30    30    31    2
    31    30    32    1
    32    32    33    1
    33    33    36    1
    34    36    37   ar
    35    37    38   ar
    36    38    39   ar
    37    39    42    1
    38    42    43    1
    39    43    44    1
    40    43    45    1
    41    43    46    1
    42    39    40   ar
    43    40    41   ar
    44    33    34    1
    45    34    35    1
    46    12     7   ar
    47     6     1   ar
    48    34    29    1
    49    18    13   ar
    50    41    36   ar
@<TRIPOS>MOLECULE
*****
 46 50 0 0 0
SMALL
GASTEIGER

@<TRIPOS>ATOM
      1 C         140.6731  141.0960  158.2892 C.ar    1  UNL1        0.0375
      2 C         140.9765  140.2262  157.1054 C.ar    1  UNL1        0.1031
      3 N         139.8759  139.8227  156.1695 N.ar    1  UNL1       -0.2121
      4 C         138.4718  140.2889  156.4176 C.ar    1  UNL1        0.2200
      5 N         138.1685  141.1586  157.6014 N.ar    1  UNL1       -0.2163
      6 C         139.2692  141.5621  158.5373 C.ar    1  UNL1        0.0836
      7 C         142.7411  142.5742  158.8261 C.ar    1  UNL1        0.1387
      8 C         143.8418  142.9777  159.7619 C.ar    1  UNL1        0.0369
      9 C         143.9750  142.3065  161.0967 C.ar    1  UNL1        0.0031
     10 C         143.0076  141.2318  161.4957 C.ar    1  UNL1       -0.0001
     11 C         141.9070  140.8283  160.5599 C.ar    1  UNL1        0.0031
     12 C         141.7738  141.4995  159.2251 C.ar    1  UNL1        0.0367
     13 C         143.1409  140.5607  162.8305 C.ar    1  UNL1       -0.0039
     14 C         143.0957  141.3768  164.0882 C.ar    1  UNL1       -0.0003
     15 C         143.2290  140.7056  165.4231 C.ar    1  UNL1        0.0011
     16 C         143.4074  139.2183  165.5002 C.ar    1  UNL1        0.0137
     17 C         143.4525  138.4022  164.2425 C.ar    1  UNL1       -0.0031
     18 C         143.3193  139.0733  162.9077 C.ar    1  UNL1       -0.0218
     19 C         143.3645  138.2571  161.6500 C.3     1  UNL1        0.0310
     20 C         143.5406  138.5471  166.8350 C.2     1  UNL1        0.0729
     21 O         142.8603  139.1292  168.0384 O.co2   1  UNL1       -0.5446
     22 O         144.3542  137.2939  166.9665 O.co2   1  UNL1       -0.5446
     23 C         143.5437  142.8873  156.3750 C.3     1  UNL1        0.2525
     24 O         142.6079  143.2454  157.4912 O.3     1  UNL1       -0.4714
     25 N         137.3712  139.8853  155.4817 N.pl3   1  UNL1       -0.2747
     26 C         136.0821  140.6519  155.4652 C.3     1  UNL1        0.1151
     27 C         137.5599  138.7151  154.5625 C.3     1  UNL1        0.1151
     28 C         138.9658  142.4319  159.7211 C.3     1  UNL1        0.1428
     29 N         138.8257  141.8213  161.0841 N.am    1  UNL1       -0.2380
     30 C         137.9997  140.6180  161.4304 C.2     1  UNL1        0.4055
     31 O         137.1688  139.8142  160.4747 O.2     1  UNL1       -0.2262
     32 O         138.1505  140.3598  162.9004 O.3     1  UNL1       -0.4320
     33 C         139.0697  141.4035  163.4624 C.3     1  UNL1        0.2107
     34 C         139.4870  142.3067  162.3399 C.3     1  UNL1        0.1233
     35 C         140.4045  143.4879  162.4532 C.3     1  UNL1        0.0258
     36 C         139.4967  141.5229  164.8953 C.ar    1  UNL1        0.0192
     37 C         139.5109  140.3097  165.7774 C.ar    1  UNL1        0.0024
     38 C         139.9379  140.4292  167.2103 C.ar    1  UNL1        0.0370
     39 C         140.3506  141.7619  167.7613 C.ar    1  UNL1        0.1468
     40 C         140.3363  142.9752  166.8793 C.ar    1  UNL1        0.0370
     41 C         139.9094  142.8556  165.4464 C.ar    1  UNL1        0.0024
     42 O         140.7775  141.8813  169.1943 O.3     1  UNL1       -0.4045
     43 C         139.9857  142.7299  170.1446 C.3     1  UNL1        0.5753
     44 F         139.1939  143.5784  171.0948 F       1  UNL1       -0.1328
     45 F         141.0083  143.8205  170.0227 F       1  UNL1       -0.1328
     46 F         138.9632  141.6393  170.2664 F       1  UNL1       -0.1328
@<TRIPOS>UNITY_ATOM_ATTR
21 1
charge -1
@<TRIPOS>BOND
     1    23    24    1
     2    24     7    1
     3     7     8   ar
     4     8     9   ar
     5     9    10   ar
     6    10    13    1
     7    13    14   ar
     8    14    15   ar
     9    15    16   ar
    10    16    20    1
    11    20    21   ar
    12    20    22   ar
    13    16    17   ar
    14    17    18   ar
    15    18    19    1
    16    10    11   ar
    17    11    12   ar
    18    12     1    1
    19     1     2   ar
    20     2     3   ar
    21     3     4   ar
    22     4    25    1
    23    25    26    1
    24    25    27    1
    25     4     5   ar
    26     5     6   ar
    27     6    28    1
    28    28    29    1
    29    29    30   am
    30    30    31    2
    31    30    32    1
    32    32    33    1
    33    33    36    1
    34    36    37   ar
    35    37    38   ar
    36    38    39   ar
    37    39    42    1
    38    42    43    1
    39    43    44    1
    40    43    45    1
    41    43    46    1
    42    39    40   ar
    43    40    41   ar
    44    33    34    1
    45    34    35    1
    46    12     7   ar
    47     6     1   ar
    48    34    29    1
    49    18    13   ar
    50    41    36   ar
@<TRIPOS>MOLECULE
*****
 46 50 0 0 0
SMALL
GASTEIGER

@<TRIPOS>ATOM
      1 C         142.8899  142.3149  158.9542 C.ar    1  UNL1        0.0375
      2 C         144.1361  142.7708  158.2548 C.ar    1  UNL1        0.1031
      3 N         144.7063  141.9565  157.1316 N.ar    1  UNL1       -0.2121
      4 C         144.0304  140.6862  156.7077 C.ar    1  UNL1        0.2200
      5 N         142.7842  140.2304  157.4071 N.ar    1  UNL1       -0.2163
      6 C         142.2140  141.0448  158.5304 C.ar    1  UNL1        0.0836
      7 C         141.4923  144.3441  159.7783 C.ar    1  UNL1        0.1387
      8 C         140.9221  145.1584  160.9016 C.ar    1  UNL1        0.0369
      9 C         141.1794  144.7580  162.3240 C.ar    1  UNL1        0.0031
     10 C         142.0069  143.5432  162.6233 C.ar    1  UNL1       -0.0001
     11 C         142.5770  142.7289  161.5000 C.ar    1  UNL1        0.0031
     12 C         142.3197  143.1293  160.0775 C.ar    1  UNL1        0.0367
     13 C         142.2642  143.1427  164.0457 C.ar    1  UNL1       -0.0039
     14 C         143.6555  142.7986  164.4880 C.ar    1  UNL1       -0.0003
     15 C         143.9128  142.3981  165.9105 C.ar    1  UNL1        0.0011
     16 C         142.7788  142.3418  166.8907 C.ar    1  UNL1        0.0137
     17 C         141.3874  142.6859  166.4483 C.ar    1  UNL1       -0.0031
     18 C         141.1301  143.0864  165.0259 C.ar    1  UNL1       -0.0218
     19 C         139.7387  143.4306  164.5836 C.3     1  UNL1        0.0310
     20 C         143.0361  141.9413  168.3131 C.2     1  UNL1        0.0729
     21 O         143.1048  140.4892  168.6828 O.co2   1  UNL1       -0.5446
     22 O         143.2246  142.9929  169.3660 O.co2   1  UNL1       -0.5446
     23 C         141.9951  145.8864  157.7489 C.3     1  UNL1        0.2525
     24 O         141.2350  144.7446  158.3558 O.3     1  UNL1       -0.4714
     25 N         144.6006  139.8719  155.5845 N.pl3   1  UNL1       -0.2747
     26 C         145.5577  140.4987  154.6144 C.3     1  UNL1        0.1151
     27 C         144.2137  138.4308  155.4313 C.3     1  UNL1        0.1151
     28 C         140.9678  140.5889  159.2298 C.3     1  UNL1        0.1428
     29 N         141.0605  139.9305  160.5745 N.am    1  UNL1       -0.2380
     30 C         141.9497  138.7764  160.9315 C.2     1  UNL1        0.4055
     31 O         142.9022  138.0781  160.0068 O.2     1  UNL1       -0.2262
     32 O         141.7192  138.4433  162.3759 O.3     1  UNL1       -0.4320
     33 C         140.6875  139.3915  162.9113 C.3     1  UNL1        0.2107
     34 C         140.2805  140.3106  161.7980 C.3     1  UNL1        0.1233
     35 C         139.2707  141.4158  161.8917 C.3     1  UNL1        0.0258
     36 C         140.1562  139.4162  164.3138 C.ar    1  UNL1        0.0192
     37 C         141.0910  139.2382  165.4733 C.ar    1  UNL1        0.0024
     38 C         140.5597  139.2629  166.8757 C.ar    1  UNL1        0.0370
     39 C         139.0935  139.4656  167.1189 C.ar    1  UNL1        0.1468
     40 C         138.1586  139.6436  165.9594 C.ar    1  UNL1        0.0370
     41 C         138.6900  139.6189  164.5569 C.ar    1  UNL1        0.0024
     42 O         138.5622  139.4903  168.5214 O.3     1  UNL1       -0.4045
     43 C         139.1187  140.4642  169.5172 C.3     1  UNL1        0.5753
     44 F         139.6753  141.4382  170.5130 F       1  UNL1       -0.1328
     45 F         138.7210  139.5476  170.6360 F       1  UNL1       -0.1328
     46 F         139.5165  141.3808  168.3985 F       1  UNL1       -0.1328
@<TRIPOS>UNITY_ATOM_ATTR
21 1
charge -1
@<TRIPOS>BOND
     1    23    24    1
     2    24     7    1
     3     7     8   ar
     4     8     9   ar
     5     9    10   ar
     6    10    13    1
     7    13    14   ar
     8    14    15   ar
     9    15    16   ar
    10    16    20    1
    11    20    21   ar
    12    20    22   ar
    13    16    17   ar
    14    17    18   ar
    15    18    19    1
    16    10    11   ar
    17    11    12   ar
    18    12     1    1
    19     1     2   ar
    20     2     3   ar
    21     3     4   ar
    22     4    25    1
    23    25    26    1
    24    25    27    1
    25     4     5   ar
    26     5     6   ar
    27     6    28    1
    28    28    29    1
    29    29    30   am
    30    30    31    2
    31    30    32    1
    32    32    33    1
    33    33    36    1
    34    36    37   ar
    35    37    38   ar
    36    38    39   ar
    37    39    42    1
    38    42    43    1
    39    43    44    1
    40    43    45    1
    41    43    46    1
    42    39    40   ar
    43    40    41   ar
    44    33    34    1
    45    34    35    1
    46    12     7   ar
    47     6     1   ar
    48    34    29    1
    49    18    13   ar
    50    41    36   ar
@<TRIPOS>MOLECULE
*****
 46 50 0 0 0
SMALL
GASTEIGER

@<TRIPOS>ATOM
      1 C         142.2188  141.9499  158.5630 C.ar    1  UNL1        0.0375
      2 C         142.5326  141.1815  157.3136 C.ar    1  UNL1        0.1031
      3 N         143.9137  141.2294  156.7305 N.ar    1  UNL1       -0.2121
      4 C         144.9813  142.0458  157.3969 C.ar    1  UNL1        0.2200
      5 N         144.6675  142.8142  158.6463 N.ar    1  UNL1       -0.2163
      6 C         143.2863  142.7663  159.2294 C.ar    1  UNL1        0.0836
      7 C         139.6948  142.5491  158.4216 C.ar    1  UNL1        0.1387
      8 C         138.3136  142.5011  159.0047 C.ar    1  UNL1        0.0369
      9 C         138.0753  141.8059  160.3123 C.ar    1  UNL1        0.0031
     10 C         139.2181  141.1587  161.0368 C.ar    1  UNL1       -0.0001
     11 C         140.5992  141.2067  160.4537 C.ar    1  UNL1        0.0031
     12 C         140.8376  141.9019  159.1461 C.ar    1  UNL1        0.0367
     13 C         138.9798  140.4635  162.3444 C.ar    1  UNL1       -0.0039
     14 C         139.2595  138.9957  162.4754 C.ar    1  UNL1       -0.0003
     15 C         139.0212  138.3005  163.7830 C.ar    1  UNL1        0.0011
     16 C         138.5031  139.0731  164.9597 C.ar    1  UNL1        0.0137
     17 C         138.2234  140.5409  164.8287 C.ar    1  UNL1       -0.0031
     18 C         138.4617  141.2361  163.5211 C.ar    1  UNL1       -0.0218
     19 C         138.1819  142.7040  163.3902 C.3     1  UNL1        0.0310
     20 C         138.2648  138.3779  166.2673 C.2     1  UNL1        0.0729
     21 O         137.8667  136.9318  166.2863 O.co2   1  UNL1       -0.5446
     22 O         138.4244  139.1287  167.5560 O.co2   1  UNL1       -0.5446
     23 C         140.2075  144.7188  157.0875 C.3     1  UNL1        0.2525
     24 O         139.9331  143.2443  157.1139 O.3     1  UNL1       -0.4714
     25 N         146.3624  142.0937  156.8138 N.pl3   1  UNL1       -0.2747
     26 C         146.6904  141.2836  155.5947 C.3     1  UNL1        0.1151
     27 C         147.4156  142.9518  157.4498 C.3     1  UNL1        0.1151
     28 C         142.9726  143.5347  160.4788 C.3     1  UNL1        0.1428
     29 N         143.0616  142.8608  161.8160 N.am    1  UNL1       -0.2380
     30 C         143.8465  141.6212  162.1280 C.2     1  UNL1        0.4055
     31 O         144.6799  140.8377  161.1577 O.2     1  UNL1       -0.2262
     32 O         143.6514  141.3024  163.5808 O.3     1  UNL1       -0.4320
     33 C         142.7461  142.3452  164.1666 C.3     1  UNL1        0.2107
     34 C         142.3816  143.3083  163.0759 C.3     1  UNL1        0.1233
     35 C         141.4930  144.5082  163.2197 C.3     1  UNL1        0.0258
     36 C         142.2860  142.4129  165.5926 C.ar    1  UNL1        0.0192
     37 C         140.8505  142.7170  165.9040 C.ar    1  UNL1        0.0024
     38 C         140.3905  142.7847  167.3300 C.ar    1  UNL1        0.0370
     39 C         141.3659  142.5484  168.4448 C.ar    1  UNL1        0.1468
     40 C         142.8014  142.2443  168.1335 C.ar    1  UNL1        0.0370
     41 C         143.2614  142.1766  166.7074 C.ar    1  UNL1        0.0024
     42 O         140.9058  142.6161  169.8709 O.3     1  UNL1       -0.4045
     43 C         139.6365  141.9311  170.2829 C.3     1  UNL1        0.5753
     44 F         138.3673  141.2461  170.6948 F       1  UNL1       -0.1328
     45 F         140.1094  140.6644  169.6335 F       1  UNL1       -0.1328
     46 F         139.1636  143.1978  170.9323 F       1  UNL1       -0.1328
@<TRIPOS>UNITY_ATOM_ATTR
21 1
charge -1
@<TRIPOS>BOND
     1    23    24    1
     2    24     7    1
     3     7     8   ar
     4     8     9   ar
     5     9    10   ar
     6    10    13    1
     7    13    14   ar
     8    14    15   ar
     9    15    16   ar
    10    16    20    1
    11    20    21   ar
    12    20    22   ar
    13    16    17   ar
    14    17    18   ar
    15    18    19    1
    16    10    11   ar
    17    11    12   ar
    18    12     1    1
    19     1     2   ar
    20     2     3   ar
    21     3     4   ar
    22     4    25    1
    23    25    26    1
    24    25    27    1
    25     4     5   ar
    26     5     6   ar
    27     6    28    1
    28    28    29    1
    29    29    30   am
    30    30    31    2
    31    30    32    1
    32    32    33    1
    33    33    36    1
    34    36    37   ar
    35    37    38   ar
    36    38    39   ar
    37    39    42    1
    38    42    43    1
    39    43    44    1
    40    43    45    1
    41    43    46    1
    42    39    40   ar
    43    40    41   ar
    44    33    34    1
    45    34    35    1
    46    12     7   ar
    47     6     1   ar
    48    34    29    1
    49    18    13   ar
    50    41    36   ar
