@<TRIPOS>MOLECULE
*****
 21 21 0 0 0
SMALL
GASTEIGER

@<TRIPOS>ATOM
      1 C         144.9019  139.4901  164.3888 C.3     1  UNL1        0.0721
      2 N         143.6012  138.9312  164.8844 N.3     1  UNL1       -0.2727
      3 C         143.4873  138.4344  166.2951 C.3     1  UNL1        0.0721
      4 C         142.7186  139.2277  167.3099 C.3     1  UNL1        0.0188
      5 C         142.4143  138.8691  163.9692 C.3     1  UNL1        0.0721
      6 C         141.6660  137.5804  163.7979 C.3     1  UNL1        0.0173
      7 C         140.4594  137.2957  164.6423 C.3     1  UNL1        0.0014
      8 C         139.1138  137.8108  164.2254 C.3     1  UNL1        0.0000
      9 C         138.7118  139.2163  164.5611 C.3     1  UNL1        0.0000
     10 C         137.7678  138.5267  166.8814 C.3     1  UNL1        0.0000
     11 C         138.3360  139.5730  165.9688 C.3     1  UNL1        0.0000
     12 C         144.9057  140.5830  163.3613 C.3     1  UNL1        0.0177
     13 C         145.4984  141.9208  163.6916 C.3     1  UNL1        0.0061
     14 C         144.9014  142.7563  164.7849 C.3     1  UNL1        0.0264
     15 C         143.5137  143.3059  164.6362 C.ar    1  UNL1       -0.0221
     16 C         142.3417  142.5390  165.1729 C.ar    1  UNL1       -0.0034
     17 C         140.9540  143.0886  165.0241 C.ar    1  UNL1        0.0111
     18 C         140.7383  144.4053  164.3387 C.ar    1  UNL1        0.0577
     19 CL        139.3506  144.9549  164.1899 Cl      1  UNL1       -0.0822
     20 C         141.9103  145.1722  163.8019 C.ar    1  UNL1        0.0111
     21 C         143.2980  144.6226  163.9507 C.ar    1  UNL1       -0.0034
@<TRIPOS>BOND
     1    10    11    1
     2    11     9    1
     3     9     8    1
     4     8     7    1
     5     7     6    1
     6     6     5    1
     7     5     2    1
     8     2     3    1
     9     3     4    1
    10     2     1    1
    11     1    12    1
    12    12    13    1
    13    13    14    1
    14    14    15    1
    15    15    16   ar
    16    16    17   ar
    17    17    18   ar
    18    18    19    1
    19    18    20   ar
    20    20    21   ar
    21    21    15   ar
@<TRIPOS>MOLECULE
*****
 21 21 0 0 0
SMALL
GASTEIGER

@<TRIPOS>ATOM
      1 C         140.6540  138.1959  163.1450 C.3     1  UNL1        0.0721
      2 N         139.1911  138.1572  163.4743 N.3     1  UNL1       -0.2727
      3 C         138.1807  138.5886  162.4530 C.3     1  UNL1        0.0721
      4 C         137.8473  140.0425  162.2953 C.3     1  UNL1        0.0188
      5 C         138.7385  137.6871  164.8250 C.3     1  UNL1        0.0721
      6 C         138.2982  138.6828  165.8569 C.3     1  UNL1        0.0173
      7 C         139.3175  139.3879  166.7017 C.3     1  UNL1        0.0014
      8 C         139.4797  140.8753  166.5962 C.3     1  UNL1        0.0000
      9 C         139.6710  141.5155  165.2532 C.3     1  UNL1        0.0000
     10 C         137.8901  143.1860  164.3656 C.3     1  UNL1        0.0000
     11 C         139.2133  142.9252  165.0223 C.3     1  UNL1        0.0000
     12 C         141.6588  137.6797  164.1319 C.3     1  UNL1        0.0177
     13 C         142.6976  138.6025  164.6969 C.3     1  UNL1        0.0061
     14 C         143.1162  138.4723  166.1314 C.3     1  UNL1        0.0264
     15 C         142.9343  139.6254  167.0733 C.ar    1  UNL1       -0.0221
     16 C         142.6120  139.3717  168.5161 C.ar    1  UNL1       -0.0034
     17 C         142.4301  140.5248  169.4580 C.ar    1  UNL1        0.0111
     18 C         142.5707  141.9317  168.9572 C.ar    1  UNL1        0.0577
     19 CL        142.3889  143.0848  169.8992 Cl      1  UNL1       -0.0822
     20 C         142.8930  142.1854  167.5144 C.ar    1  UNL1        0.0111
     21 C         143.0749  141.0323  166.5725 C.ar    1  UNL1       -0.0034
@<TRIPOS>BOND
     1    10    11    1
     2    11     9    1
     3     9     8    1
     4     8     7    1
     5     7     6    1
     6     6     5    1
     7     5     2    1
     8     2     3    1
     9     3     4    1
    10     2     1    1
    11     1    12    1
    12    12    13    1
    13    13    14    1
    14    14    15    1
    15    15    16   ar
    16    16    17   ar
    17    17    18   ar
    18    18    19    1
    19    18    20   ar
    20    20    21   ar
    21    21    15   ar
@<TRIPOS>MOLECULE
*****
 21 21 0 0 0
SMALL
GASTEIGER

@<TRIPOS>ATOM
      1 C         143.5900  141.2757  163.9268 C.3     1  UNL1        0.0721
      2 N         143.0045  142.6275  164.2089 N.3     1  UNL1       -0.2727
      3 C         143.9075  143.7961  164.4712 C.3     1  UNL1        0.0721
      4 C         143.6342  145.1172  163.8154 C.3     1  UNL1        0.0188
      5 C         141.5158  142.8108  164.2289 C.3     1  UNL1        0.0721
      6 C         140.7855  142.8747  165.5375 C.3     1  UNL1        0.0173
      7 C         139.4925  142.1346  165.7118 C.3     1  UNL1        0.0014
      8 C         139.2450  140.8672  164.9485 C.3     1  UNL1        0.0000
      9 C         138.2028  139.8979  165.4221 C.3     1  UNL1        0.0000
     10 C         139.3198  137.6029  164.9370 C.3     1  UNL1        0.0000
     11 C         138.6058  138.5270  165.8784 C.3     1  UNL1        0.0000
     12 C         143.8228  140.3098  165.0506 C.3     1  UNL1        0.0177
     13 C         142.6705  139.5489  165.6364 C.3     1  UNL1        0.0061
     14 C         142.6018  139.3138  167.1162 C.3     1  UNL1        0.0264
     15 C         141.8879  140.2941  167.9991 C.ar    1  UNL1       -0.0221
     16 C         142.5573  141.5789  168.3879 C.ar    1  UNL1       -0.0034
     17 C         141.8435  142.5592  169.2708 C.ar    1  UNL1        0.0111
     18 C         140.4602  142.2548  169.7647 C.ar    1  UNL1        0.0577
     19 CL        139.7464  143.2351  170.6475 Cl      1  UNL1       -0.0822
     20 C         139.7909  140.9700  169.3758 C.ar    1  UNL1        0.0111
     21 C         140.5047  139.9897  168.4930 C.ar    1  UNL1       -0.0034
@<TRIPOS>BOND
     1    10    11    1
     2    11     9    1
     3     9     8    1
     4     8     7    1
     5     7     6    1
     6     6     5    1
     7     5     2    1
     8     2     3    1
     9     3     4    1
    10     2     1    1
    11     1    12    1
    12    12    13    1
    13    13    14    1
    14    14    15    1
    15    15    16   ar
    16    16    17   ar
    17    17    18   ar
    18    18    19    1
    19    18    20   ar
    20    20    21   ar
    21    21    15   ar
@<TRIPOS>MOLECULE
*****
 21 21 0 0 0
SMALL
GASTEIGER

@<TRIPOS>ATOM
      1 C         141.0376  137.2940  164.6995 C.3     1  UNL1        0.0721
      2 N         142.1574  138.2920  164.7051 N.3     1  UNL1       -0.2727
      3 C         142.4015  139.1522  163.5008 C.3     1  UNL1        0.0721
      4 C         141.8442  140.5438  163.4477 C.3     1  UNL1        0.0188
      5 C         143.0331  138.4298  165.9152 C.3     1  UNL1        0.0721
      6 C         142.9003  139.6305  166.8043 C.3     1  UNL1        0.0173
      7 C         142.3116  139.4863  168.1764 C.3     1  UNL1        0.0014
      8 C         142.8314  140.3234  169.3073 C.3     1  UNL1        0.0000
      9 C         143.0559  141.7934  169.1108 C.3     1  UNL1        0.0000
     10 C         140.7211  142.3132  170.1250 C.3     1  UNL1        0.0000
     11 C         141.9477  142.7652  169.3893 C.3     1  UNL1        0.0000
     12 C         139.6460  137.7301  164.3480 C.3     1  UNL1        0.0177
     13 C         138.6943  138.1453  165.4306 C.3     1  UNL1        0.0061
     14 C         139.0630  139.2571  166.3675 C.3     1  UNL1        0.0264
     15 C         139.0703  140.6762  165.8814 C.ar    1  UNL1       -0.0221
     16 C         138.1497  141.0941  164.7733 C.ar    1  UNL1       -0.0034
     17 C         138.1570  142.5131  164.2872 C.ar    1  UNL1        0.0111
     18 C         139.0849  143.5142  164.9091 C.ar    1  UNL1        0.0577
     19 CL        139.0922  144.9332  164.4230 Cl      1  UNL1       -0.0822
     20 C         140.0054  143.0963  166.0172 C.ar    1  UNL1        0.0111
     21 C         139.9981  141.6773  166.5033 C.ar    1  UNL1       -0.0034
@<TRIPOS>BOND
     1    10    11    1
     2    11     9    1
     3     9     8    1
     4     8     7    1
     5     7     6    1
     6     6     5    1
     7     5     2    1
     8     2     3    1
     9     3     4    1
    10     2     1    1
    11     1    12    1
    12    12    13    1
    13    13    14    1
    14    14    15    1
    15    15    16   ar
    16    16    17   ar
    17    17    18   ar
    18    18    19    1
    19    18    20   ar
    20    20    21   ar
    21    21    15   ar
@<TRIPOS>MOLECULE
*****
 21 21 0 0 0
SMALL
GASTEIGER

@<TRIPOS>ATOM
      1 C         142.4995  140.5398  165.9788 C.3     1  UNL1        0.0721
      2 N         142.3854  140.9925  164.5534 N.3     1  UNL1       -0.2727
      3 C         143.2747  140.3954  163.5033 C.3     1  UNL1        0.0721
      4 C         144.7189  140.1277  163.8073 C.3     1  UNL1        0.0188
      5 C         141.3820  142.0424  164.1779 C.3     1  UNL1        0.0721
      6 C         141.1948  143.2474  165.0514 C.3     1  UNL1        0.0173
      7 C         139.9335  143.4083  165.8471 C.3     1  UNL1        0.0014
      8 C         138.9625  144.4981  165.5015 C.3     1  UNL1        0.0000
      9 C         137.8018  144.2093  164.5964 C.3     1  UNL1        0.0000
     10 C         139.0951  145.1113  162.5315 C.3     1  UNL1        0.0000
     11 C         137.9682  144.3070  163.1089 C.3     1  UNL1        0.0000
     12 C         141.5509  139.5099  166.5169 C.3     1  UNL1        0.0177
     13 C         140.2543  139.9367  167.1389 C.3     1  UNL1        0.0061
     14 C         138.9615  139.3488  166.6562 C.3     1  UNL1        0.0264
     15 C         138.6376  139.3501  165.1916 C.ar    1  UNL1       -0.0221
     16 C         138.0364  140.5693  164.5575 C.ar    1  UNL1       -0.0034
     17 C         137.7124  140.5705  163.0929 C.ar    1  UNL1        0.0111
     18 C         137.9896  139.3526  162.2624 C.ar    1  UNL1        0.0577
     19 CL        137.6656  139.3539  160.7978 Cl      1  UNL1       -0.0822
     20 C         138.5908  138.1334  162.8965 C.ar    1  UNL1        0.0111
     21 C         138.9148  138.1322  164.3611 C.ar    1  UNL1       -0.0034
@<TRIPOS>BOND
     1    10    11    1
     2    11     9    1
     3     9     8    1
     4     8     7    1
     5     7     6    1
     6     6     5    1
     7     5     2    1
     8     2     3    1
     9     3     4    1
    10     2     1    1
    11     1    12    1
    12    12    13    1
    13    13    14    1
    14    14    15    1
    15    15    16   ar
    16    16    17   ar
    17    17    18   ar
    18    18    19    1
    19    18    20   ar
    20    20    21   ar
    21    21    15   ar
@<TRIPOS>MOLECULE
*****
 21 21 0 0 0
SMALL
GASTEIGER

@<TRIPOS>ATOM
      1 C         139.3934  137.7956  164.4199 C.3     1  UNL1        0.0721
      2 N         139.1898  138.3750  163.0514 N.3     1  UNL1       -0.2727
      3 C         140.1553  138.0533  161.9495 C.3     1  UNL1        0.0721
      4 C         141.6049  137.8302  162.2639 C.3     1  UNL1        0.0188
      5 C         138.0207  139.2762  162.7849 C.3     1  UNL1        0.0721
      6 C         138.2475  140.7237  162.4633 C.3     1  UNL1        0.0173
      7 C         137.3383  141.7705  163.0355 C.3     1  UNL1        0.0014
      8 C         137.8323  143.1752  163.2167 C.3     1  UNL1        0.0000
      9 C         137.8849  143.7807  164.5880 C.3     1  UNL1        0.0000
     10 C         140.2620  144.7067  164.0962 C.3     1  UNL1        0.0000
     11 C         139.1277  144.4812  165.0515 C.3     1  UNL1        0.0000
     12 C         138.5521  138.2696  165.5679 C.3     1  UNL1        0.0177
     13 C         139.0929  139.2935  166.5214 C.3     1  UNL1        0.0061
     14 C         139.2570  140.7173  166.0792 C.3     1  UNL1        0.0264
     15 C         140.6251  141.2595  165.7886 C.ar    1  UNL1       -0.0221
     16 C         141.4109  141.9334  166.8742 C.ar    1  UNL1       -0.0034
     17 C         142.7789  142.4756  166.5836 C.ar    1  UNL1        0.0111
     18 C         143.3612  142.3439  165.2076 C.ar    1  UNL1        0.0577
     19 CL        144.7293  142.8861  164.9170 Cl      1  UNL1       -0.0822
     20 C         142.5754  141.6701  164.1220 C.ar    1  UNL1        0.0111
     21 C         141.2073  141.1279  164.4126 C.ar    1  UNL1       -0.0034
@<TRIPOS>BOND
     1    10    11    1
     2    11     9    1
     3     9     8    1
     4     8     7    1
     5     7     6    1
     6     6     5    1
     7     5     2    1
     8     2     3    1
     9     3     4    1
    10     2     1    1
    11     1    12    1
    12    12    13    1
    13    13    14    1
    14    14    15    1
    15    15    16   ar
    16    16    17   ar
    17    17    18   ar
    18    18    19    1
    19    18    20   ar
    20    20    21   ar
    21    21    15   ar
@<TRIPOS>MOLECULE
*****
 21 21 0 0 0
SMALL
GASTEIGER

@<TRIPOS>ATOM
      1 C         137.6516  144.3750  163.1364 C.3     1  UNL1        0.0721
      2 N         138.5217  143.8307  162.0425 N.3     1  UNL1       -0.2727
      3 C         139.7261  144.6011  161.5888 C.3     1  UNL1        0.0721
      4 C         139.8218  146.0728  161.8622 C.3     1  UNL1        0.0188
      5 C         138.1874  142.5160  161.4023 C.3     1  UNL1        0.0721
      6 C         138.3161  141.2448  162.1881 C.3     1  UNL1        0.0173
      7 C         139.4978  141.0358  163.0880 C.3     1  UNL1        0.0014
      8 C         139.7883  139.6716  163.6398 C.3     1  UNL1        0.0000
      9 C         138.7377  138.9389  164.4203 C.3     1  UNL1        0.0000
     10 C         139.1367  139.7660  166.8507 C.3     1  UNL1        0.0000
     11 C         138.2092  139.5218  165.6974 C.3     1  UNL1        0.0000
     12 C         137.9214  144.0033  164.5644 C.3     1  UNL1        0.0177
     13 C         139.2297  144.3693  165.2003 C.3     1  UNL1        0.0061
     14 C         140.0461  143.3196  165.8942 C.3     1  UNL1        0.0264
     15 C         141.4251  142.9946  165.4016 C.ar    1  UNL1       -0.0221
     16 C         142.1267  141.7638  165.8941 C.ar    1  UNL1       -0.0034
     17 C         143.5058  141.4388  165.4014 C.ar    1  UNL1        0.0111
     18 C         144.1831  142.3446  164.4162 C.ar    1  UNL1        0.0577
     19 CL        145.5621  142.0196  163.9236 Cl      1  UNL1       -0.0822
     20 C         143.4814  143.5755  163.9237 C.ar    1  UNL1        0.0111
     21 C         142.1024  143.9005  164.4164 C.ar    1  UNL1       -0.0034
@<TRIPOS>BOND
     1    10    11    1
     2    11     9    1
     3     9     8    1
     4     8     7    1
     5     7     6    1
     6     6     5    1
     7     5     2    1
     8     2     3    1
     9     3     4    1
    10     2     1    1
    11     1    12    1
    12    12    13    1
    13    13    14    1
    14    14    15    1
    15    15    16   ar
    16    16    17   ar
    17    17    18   ar
    18    18    19    1
    19    18    20   ar
    20    20    21   ar
    21    21    15   ar
@<TRIPOS>MOLECULE
*****
 21 21 0 0 0
SMALL
GASTEIGER

@<TRIPOS>ATOM
      1 C         140.3061  142.7735  166.8050 C.3     1  UNL1        0.0721
      2 N         140.2077  143.5724  165.5392 N.3     1  UNL1       -0.2727
      3 C         139.0091  144.4392  165.2907 C.3     1  UNL1        0.0721
      4 C         137.9248  143.9724  164.3651 C.3     1  UNL1        0.0188
      5 C         141.3081  143.5045  164.5220 C.3     1  UNL1        0.0721
      6 C         141.3174  142.4072  163.4994 C.3     1  UNL1        0.0173
      7 C         142.2790  141.2640  163.6346 C.3     1  UNL1        0.0014
      8 C         141.7944  139.8534  163.4757 C.3     1  UNL1        0.0000
      9 C         142.6544  138.7097  163.9256 C.3     1  UNL1        0.0000
     10 C         143.2685  138.8118  166.4480 C.3     1  UNL1        0.0000
     11 C         142.5173  138.1710  165.3188 C.3     1  UNL1        0.0000
     12 C         140.6144  141.3068  166.7440 C.3     1  UNL1        0.0177
     13 C         139.9127  140.3540  167.6659 C.3     1  UNL1        0.0061
     14 C         138.7901  139.5024  167.1516 C.3     1  UNL1        0.0264
     15 C         138.6544  139.2493  165.6793 C.ar    1  UNL1       -0.0221
     16 C         138.1745  140.3427  164.7715 C.ar    1  UNL1       -0.0034
     17 C         138.0388  140.0897  163.2992 C.ar    1  UNL1        0.0111
     18 C         138.3831  138.7433  162.7348 C.ar    1  UNL1        0.0577
     19 CL        138.2474  138.4902  161.2625 Cl      1  UNL1       -0.0822
     20 C         138.8630  137.6499  163.6426 C.ar    1  UNL1        0.0111
     21 C         138.9987  137.9029  165.1148 C.ar    1  UNL1       -0.0034
@<TRIPOS>BOND
     1    10    11    1
     2    11     9    1
     3     9     8    1
     4     8     7    1
     5     7     6    1
     6     6     5    1
     7     5     2    1
     8     2     3    1
     9     3     4    1
    10     2     1    1
    11     1    12    1
    12    12    13    1
    13    13    14    1
    14    14    15    1
    15    15    16   ar
    16    16    17   ar
    17    17    18   ar
    18    18    19    1
    19    18    20   ar
    20    20    21   ar
    21    21    15   ar
@<TRIPOS>MOLECULE
*****
 21 21 0 0 0
SMALL
GASTEIGER

@<TRIPOS>ATOM
      1 C         140.5039  137.6015  164.6508 C.3     1  UNL1        0.0721
      2 N         141.2831  138.7210  164.0267 N.3     1  UNL1       -0.2727
      3 C         142.5324  139.2244  164.6868 C.3     1  UNL1        0.0721
      4 C         142.8395  138.8392  166.1036 C.3     1  UNL1        0.0188
      5 C         140.8129  139.3372  162.7424 C.3     1  UNL1        0.0721
      6 C         140.1750  140.6947  162.7512 C.3     1  UNL1        0.0173
      7 C         138.9057  140.9320  161.9881 C.3     1  UNL1        0.0014
      8 C         137.6156  141.1405  162.7245 C.3     1  UNL1        0.0000
      9 C         137.4810  142.2767  163.6944 C.3     1  UNL1        0.0000
     10 C         139.0528  144.3393  163.5356 C.3     1  UNL1        0.0000
     11 C         137.7360  143.6838  163.2414 C.3     1  UNL1        0.0000
     12 C         139.0072  137.6755  164.7174 C.3     1  UNL1        0.0177
     13 C         138.3382  138.2626  165.9248 C.3     1  UNL1        0.0061
     14 C         138.2970  139.7505  166.1103 C.3     1  UNL1        0.0264
     15 C         139.4135  140.4479  166.8293 C.ar    1  UNL1       -0.0221
     16 C         139.8710  139.9486  168.1677 C.ar    1  UNL1       -0.0034
     17 C         140.9876  140.6460  168.8868 C.ar    1  UNL1        0.0111
     18 C         141.6466  141.8427  168.2674 C.ar    1  UNL1        0.0577
     19 CL        142.7631  142.5401  168.9865 Cl      1  UNL1       -0.0822
     20 C         141.1891  142.3419  166.9290 C.ar    1  UNL1        0.0111
     21 C         140.0726  141.6445  166.2100 C.ar    1  UNL1       -0.0034
@<TRIPOS>BOND
     1    10    11    1
     2    11     9    1
     3     9     8    1
     4     8     7    1
     5     7     6    1
     6     6     5    1
     7     5     2    1
     8     2     3    1
     9     3     4    1
    10     2     1    1
    11     1    12    1
    12    12    13    1
    13    13    14    1
    14    14    15    1
    15    15    16   ar
    16    16    17   ar
    17    17    18   ar
    18    18    19    1
    19    18    20   ar
    20    20    21   ar
    21    21    15   ar
