@<TRIPOS>MOLECULE
*****
 37 40 0 0 0
SMALL
GASTEIGER

@<TRIPOS>ATOM
      1 N         141.1069  142.4966  163.7693 N.ar    1  UNL1       -0.1967
      2 N         142.1405  142.7905  164.8158 N.ar    1  UNL1       -0.1666
      3 C         141.7974  141.9972  166.0417 C.ar    1  UNL1        0.0849
      4 C         140.5517  141.2130  165.7529 C.ar    1  UNL1        0.0340
      5 C         139.7510  140.2578  166.5872 C.ar    1  UNL1        0.0130
      6 C         138.5234  139.6112  166.0171 C.ar    1  UNL1        0.0686
      7 C         138.0967  139.9199  164.6126 C.ar    1  UNL1        0.0118
      8 C         138.8974  140.8751  163.7782 C.ar    1  UNL1        0.0200
      9 C         140.1250  141.5217  164.3484 C.ar    1  UNL1        0.0871
     10 C         140.9748  144.2347  159.6205 C.ar    1  UNL1        0.1194
     11 C         141.7182  142.9571  159.8751 C.ar    1  UNL1        0.1452
     12 N         142.4176  142.2587  158.7468 N.pl3   1  UNL1       -0.3415
     13 N         141.7622  142.3777  161.2580 N.ar    1  UNL1       -0.1940
     14 C         141.0629  143.0760  162.3863 C.ar    1  UNL1        0.2554
     15 N         140.3194  144.3537  162.1318 N.ar    1  UNL1       -0.1940
     16 C         140.2754  144.9331  160.7489 C.ar    1  UNL1        0.1452
     17 N         139.5320  146.2107  160.4944 N.pl3   1  UNL1       -0.3415
     18 H         142.3888  142.6390  157.8391 H       1  UNL1        0.1438
     19 H         142.9056  141.4201  158.9139 H       1  UNL1        0.1438
     20 H         139.0729  146.6690  161.2350 H       1  UNL1        0.1438
     21 H         139.5030  146.5910  159.5867 H       1  UNL1        0.1438
     22 C         139.8624  144.3824  157.2774 C.2     1  UNL1        0.4090
     23 O         138.8380  143.3715  157.7000 O.2     1  UNL1       -0.2258
     24 N         140.9308  144.8141  158.2376 N.am    1  UNL1       -0.2181
     25 C         141.9552  145.8250  157.8150 C.3     1  UNL1        0.1237
     26 C         138.9481  146.1490  155.6059 C.3     1  UNL1        0.2574
     27 O         139.8183  144.9617  155.8944 O.3     1  UNL1       -0.4302
     28 C         137.7226  138.6559  166.8515 C.1     1  UNL1        0.1004
     29 N         136.9218  137.7007  167.6859 N.1     1  UNL1       -0.1908
     30 C         142.5651  141.9894  167.3303 C.3     1  UNL1        0.0762
     31 C         141.8338  142.0314  168.6394 C.ar    1  UNL1        0.0113
     32 C         140.8464  143.1272  168.9120 C.ar    1  UNL1       -0.0017
     33 C         140.1151  143.1693  170.2210 C.ar    1  UNL1       -0.0002
     34 C         140.3711  142.1155  171.2573 C.ar    1  UNL1        0.0023
     35 C         141.3585  141.0197  170.9846 C.ar    1  UNL1        0.0293
     36 C         142.0898  140.9776  169.6757 C.ar    1  UNL1        0.1365
     37 F         143.0771  139.8818  169.4031 F       1  UNL1       -0.2045
@<TRIPOS>BOND
     1    26    27    1
     2    27    22    1
     3    22    23    2
     4    22    24   am
     5    24    25    1
     6    24    10    1
     7    10    11   ar
     8    11    12    1
     9    11    13   ar
    10    13    14   ar
    11    14     1    1
    12     1     2   ar
    13     2     3   ar
    14     3    30    1
    15    30    31    1
    16    31    32   ar
    17    32    33   ar
    18    33    34   ar
    19    34    35   ar
    20    35    36   ar
    21    36    37    1
    22     3     4   ar
    23     4     5   ar
    24     5     6   ar
    25     6    28    1
    26    28    29    3
    27     6     7   ar
    28     7     8   ar
    29     8     9   ar
    30    14    15   ar
    31    15    16   ar
    32    16    17    1
    33    16    10   ar
    34     9     1   ar
    35    36    31   ar
    36     9     4   ar
    37    12    18    1
    38    12    19    1
    39    17    20    1
    40    17    21    1
@<TRIPOS>MOLECULE
*****
 37 40 0 0 0
SMALL
GASTEIGER

@<TRIPOS>ATOM
      1 N         141.1293  142.5510  163.6581 N.ar    1  UNL1       -0.1967
      2 N         142.1524  142.8571  164.7114 N.ar    1  UNL1       -0.1666
      3 C         141.8110  142.0592  165.9348 C.ar    1  UNL1        0.0849
      4 C         140.5769  141.2601  165.6377 C.ar    1  UNL1        0.0340
      5 C         139.7823  140.2949  166.4666 C.ar    1  UNL1        0.0130
      6 C         138.5665  139.6337  165.8884 C.ar    1  UNL1        0.0686
      7 C         138.1451  139.9376  164.4812 C.ar    1  UNL1        0.0118
      8 C         138.9396  140.9028  163.6523 C.ar    1  UNL1        0.0200
      9 C         140.1555  141.5640  164.2305 C.ar    1  UNL1        0.0871
     10 C         141.0031  144.2887  159.5090 C.ar    1  UNL1        0.1194
     11 C         140.2926  144.9810  160.6340 C.ar    1  UNL1        0.1452
     12 N         139.5400  146.2526  160.3760 N.pl3   1  UNL1       -0.3415
     13 N         140.3346  144.4018  162.0170 N.ar    1  UNL1       -0.1940
     14 C         141.0872  143.1302  162.2751 C.ar    1  UNL1        0.2554
     15 N         141.7978  142.4378  161.1500 N.ar    1  UNL1       -0.1940
     16 C         141.7557  143.0170  159.7669 C.ar    1  UNL1        0.1452
     17 N         142.4663  142.3246  158.6420 N.pl3   1  UNL1       -0.3415
     18 H         139.5123  146.6328  159.4683 H       1  UNL1        0.1438
     19 H         139.0736  146.7071  161.1144 H       1  UNL1        0.1438
     20 H         142.9602  141.4900  158.8114 H       1  UNL1        0.1438
     21 H         142.4387  142.7047  157.7342 H       1  UNL1        0.1438
     22 C         139.8965  144.4330  157.1628 C.2     1  UNL1        0.4090
     23 O         138.8741  143.4189  157.5827 O.2     1  UNL1       -0.2258
     24 N         140.9610  144.8679  158.1259 N.am    1  UNL1       -0.2181
     25 C         141.9834  145.8820  157.7061 C.3     1  UNL1        0.1237
     26 C         138.9293  146.1520  155.4718 C.3     1  UNL1        0.2574
     27 O         139.8544  145.0122  155.7798 O.3     1  UNL1       -0.4302
     28 C         137.7719  138.6685  166.7173 C.1     1  UNL1        0.1004
     29 N         136.9773  137.7033  167.5461 N.1     1  UNL1       -0.1908
     30 C         142.5704  142.0603  167.2284 C.3     1  UNL1        0.0762
     31 C         141.9289  141.5270  168.4752 C.ar    1  UNL1        0.0113
     32 C         142.4025  140.2330  169.0677 C.ar    1  UNL1       -0.0017
     33 C         141.7611  139.6997  170.3144 C.ar    1  UNL1       -0.0002
     34 C         140.6461  140.4605  170.9685 C.ar    1  UNL1        0.0023
     35 C         140.1725  141.7546  170.3759 C.ar    1  UNL1        0.0293
     36 C         140.8139  142.2879  169.1293 C.ar    1  UNL1        0.1365
     37 F         140.3404  143.5820  168.5367 F       1  UNL1       -0.2045
@<TRIPOS>BOND
     1    26    27    1
     2    27    22    1
     3    22    23    2
     4    22    24   am
     5    24    25    1
     6    24    10    1
     7    10    11   ar
     8    11    12    1
     9    11    13   ar
    10    13    14   ar
    11    14     1    1
    12     1     2   ar
    13     2     3   ar
    14     3    30    1
    15    30    31    1
    16    31    32   ar
    17    32    33   ar
    18    33    34   ar
    19    34    35   ar
    20    35    36   ar
    21    36    37    1
    22     3     4   ar
    23     4     5   ar
    24     5     6   ar
    25     6    28    1
    26    28    29    3
    27     6     7   ar
    28     7     8   ar
    29     8     9   ar
    30    14    15   ar
    31    15    16   ar
    32    16    17    1
    33    16    10   ar
    34     9     1   ar
    35    36    31   ar
    36     9     4   ar
    37    12    18    1
    38    12    19    1
    39    17    20    1
    40    17    21    1
@<TRIPOS>MOLECULE
*****
 37 40 0 0 0
SMALL
GASTEIGER

@<TRIPOS>ATOM
      1 N         141.5240  142.0410  163.4984 N.ar    1  UNL1       -0.1967
      2 N         142.4595  142.4897  164.5818 N.ar    1  UNL1       -0.1666
      3 C         141.9958  141.8855  165.8740 C.ar    1  UNL1        0.0849
      4 C         140.7738  141.0635  165.5894 C.ar    1  UNL1        0.0340
      5 C         139.8889  140.2399  166.4774 C.ar    1  UNL1        0.0130
      6 C         138.7124  139.5124  165.8972 C.ar    1  UNL1        0.0686
      7 C         138.4209  139.6086  164.4290 C.ar    1  UNL1        0.0118
      8 C         139.3057  140.4322  163.5409 C.ar    1  UNL1        0.0200
      9 C         140.4822  141.1596  164.1211 C.ar    1  UNL1        0.0871
     10 C         141.7952  143.1456  159.1445 C.ar    1  UNL1        0.1194
     11 C         143.0174  142.6769  159.8769 C.ar    1  UNL1        0.1452
     12 N         144.3301  142.5764  159.1580 N.pl3   1  UNL1       -0.3415
     13 N         142.9270  142.3088  161.3282 N.ar    1  UNL1       -0.1940
     14 C         141.6144  142.4092  162.0471 C.ar    1  UNL1        0.2554
     15 N         140.3921  142.8779  161.3147 N.ar    1  UNL1       -0.1940
     16 C         140.4825  143.2460  159.8633 C.ar    1  UNL1        0.1452
     17 N         139.2602  143.7147  159.1310 N.pl3   1  UNL1       -0.3415
     18 H         144.3894  142.8181  158.2055 H       1  UNL1        0.1438
     19 H         145.1323  142.2689  159.6387 H       1  UNL1        0.1438
     20 H         138.3987  143.7806  159.6029 H       1  UNL1        0.1438
     21 H         139.3195  143.9563  158.1785 H       1  UNL1        0.1438
     22 C         142.1380  144.9377  157.2950 C.2     1  UNL1        0.4090
     23 O         142.2999  145.9935  158.3481 O.2     1  UNL1       -0.2258
     24 N         141.8856  143.5137  157.6932 N.am    1  UNL1       -0.2181
     25 C         141.7237  142.4579  156.6401 C.3     1  UNL1        0.1237
     26 C         141.1084  146.0597  155.1899 C.3     1  UNL1        0.2574
     27 O         142.2284  145.3060  155.8437 O.3     1  UNL1       -0.4302
     28 C         137.8275  138.6888  166.7852 C.1     1  UNL1        0.1004
     29 N         136.9426  137.8652  167.6733 N.1     1  UNL1       -0.1908
     30 C         142.6409  142.0708  167.2155 C.3     1  UNL1        0.0762
     31 C         141.8246  141.9300  168.4662 C.ar    1  UNL1        0.0113
     32 C         140.8621  143.0113  168.8592 C.ar    1  UNL1       -0.0017
     33 C         140.0459  142.8706  170.1098 C.ar    1  UNL1       -0.0002
     34 C         140.1921  141.6486  170.9672 C.ar    1  UNL1        0.0023
     35 C         141.1545  140.5673  170.5742 C.ar    1  UNL1        0.0293
     36 C         141.9708  140.7080  169.3236 C.ar    1  UNL1        0.1365
     37 F         142.9332  139.6267  168.9306 F       1  UNL1       -0.2045
@<TRIPOS>BOND
     1    26    27    1
     2    27    22    1
     3    22    23    2
     4    22    24   am
     5    24    25    1
     6    24    10    1
     7    10    11   ar
     8    11    12    1
     9    11    13   ar
    10    13    14   ar
    11    14     1    1
    12     1     2   ar
    13     2     3   ar
    14     3    30    1
    15    30    31    1
    16    31    32   ar
    17    32    33   ar
    18    33    34   ar
    19    34    35   ar
    20    35    36   ar
    21    36    37    1
    22     3     4   ar
    23     4     5   ar
    24     5     6   ar
    25     6    28    1
    26    28    29    3
    27     6     7   ar
    28     7     8   ar
    29     8     9   ar
    30    14    15   ar
    31    15    16   ar
    32    16    17    1
    33    16    10   ar
    34     9     1   ar
    35    36    31   ar
    36     9     4   ar
    37    12    18    1
    38    12    19    1
    39    17    20    1
    40    17    21    1
@<TRIPOS>MOLECULE
*****
 37 40 0 0 0
SMALL
GASTEIGER

@<TRIPOS>ATOM
      1 N         142.0203  138.3666  160.7828 N.ar    1  UNL1       -0.1967
      2 N         143.3031  138.7207  161.4749 N.ar    1  UNL1       -0.1666
      3 C         143.0231  138.8256  162.9447 C.ar    1  UNL1        0.0849
      4 C         141.5672  138.5363  163.1611 C.ar    1  UNL1        0.0340
      5 C         140.7259  138.4946  164.4022 C.ar    1  UNL1        0.0130
      6 C         139.2647  138.1692  164.3070 C.ar    1  UNL1        0.0686
      7 C         138.6449  137.8856  162.9708 C.ar    1  UNL1        0.0118
      8 C         139.4863  137.9273  161.7298 C.ar    1  UNL1        0.0200
      9 C         140.9475  138.2527  161.8249 C.ar    1  UNL1        0.0871
     10 C         141.4844  137.7538  156.3570 C.ar    1  UNL1        0.1194
     11 C         140.3234  138.1922  157.1995 C.ar    1  UNL1        0.1452
     12 N         138.9837  138.4263  156.5667 N.pl3   1  UNL1       -0.3415
     13 N         140.5021  138.3965  158.6747 N.ar    1  UNL1       -0.1940
     14 C         141.8417  138.1623  159.3075 C.ar    1  UNL1        0.2554
     15 N         143.0028  137.7239  158.4650 N.ar    1  UNL1       -0.1940
     16 C         142.8241  137.5196  156.9898 C.ar    1  UNL1        0.1452
     17 N         143.9852  137.0812  156.1474 N.pl3   1  UNL1       -0.3415
     18 H         138.8665  138.2923  155.5984 H       1  UNL1        0.1438
     19 H         138.2217  138.7141  157.1196 H       1  UNL1        0.1438
     20 H         144.8644  136.9275  156.5627 H       1  UNL1        0.1438
     21 H         143.8680  136.9471  155.1791 H       1  UNL1        0.1438
     22 C         141.0140  136.1799  154.3442 C.2     1  UNL1        0.4090
     23 O         140.9009  135.0145  155.2819 O.2     1  UNL1       -0.2258
     24 N         141.3058  137.5495  154.8817 N.am    1  UNL1       -0.2181
     25 C         141.4189  138.7148  153.9441 C.3     1  UNL1        0.1237
     26 C         141.6095  134.9033  152.1611 C.3     1  UNL1        0.2574
     27 O         140.8353  135.9755  152.8690 O.3     1  UNL1       -0.4302
     28 C         138.4232  138.1275  165.5481 C.1     1  UNL1        0.1004
     29 N         137.5819  138.0858  166.7892 N.1     1  UNL1       -0.1908
     30 C         144.0234  139.1608  164.0111 C.3     1  UNL1        0.0762
     31 C         144.0490  140.5361  164.6097 C.ar    1  UNL1        0.0113
     32 C         143.2186  140.8425  165.8208 C.ar    1  UNL1       -0.0017
     33 C         143.2441  142.2176  166.4194 C.ar    1  UNL1       -0.0002
     34 C         144.1002  143.2863  165.8070 C.ar    1  UNL1        0.0023
     35 C         144.9305  142.9799  164.5960 C.ar    1  UNL1        0.0293
     36 C         144.9050  141.6048  163.9973 C.ar    1  UNL1        0.1365
     37 F         145.7354  141.2984  162.7863 F       1  UNL1       -0.2045
@<TRIPOS>BOND
     1    26    27    1
     2    27    22    1
     3    22    23    2
     4    22    24   am
     5    24    25    1
     6    24    10    1
     7    10    11   ar
     8    11    12    1
     9    11    13   ar
    10    13    14   ar
    11    14     1    1
    12     1     2   ar
    13     2     3   ar
    14     3    30    1
    15    30    31    1
    16    31    32   ar
    17    32    33   ar
    18    33    34   ar
    19    34    35   ar
    20    35    36   ar
    21    36    37    1
    22     3     4   ar
    23     4     5   ar
    24     5     6   ar
    25     6    28    1
    26    28    29    3
    27     6     7   ar
    28     7     8   ar
    29     8     9   ar
    30    14    15   ar
    31    15    16   ar
    32    16    17    1
    33    16    10   ar
    34     9     1   ar
    35    36    31   ar
    36     9     4   ar
    37    12    18    1
    38    12    19    1
    39    17    20    1
    40    17    21    1
@<TRIPOS>MOLECULE
*****
 37 40 0 0 0
SMALL
GASTEIGER

@<TRIPOS>ATOM
      1 N         140.8681  140.4063  161.9209 N.ar    1  UNL1       -0.1967
      2 N         141.2259  141.7456  162.4938 N.ar    1  UNL1       -0.1666
      3 C         140.6481  141.8280  163.8756 C.ar    1  UNL1        0.0849
      4 C         139.9331  140.5397  164.1566 C.ar    1  UNL1        0.0340
      5 C         139.1758  140.0531  165.3565 C.ar    1  UNL1        0.0130
      6 C         138.5544  138.6879  165.3483 C.ar    1  UNL1        0.0686
      7 C         138.6904  137.8093  164.1402 C.ar    1  UNL1        0.0118
      8 C         139.4477  138.2958  162.9404 C.ar    1  UNL1        0.0200
      9 C         140.0690  139.6610  162.9486 C.ar    1  UNL1        0.0871
     10 C         141.9940  138.8904  157.8362 C.ar    1  UNL1        0.1194
     11 C         140.6097  138.6607  158.3662 C.ar    1  UNL1        0.1452
     12 N         139.6007  137.9257  157.5345 N.pl3   1  UNL1       -0.3415
     13 N         140.2344  139.1660  159.7277 N.ar    1  UNL1       -0.1940
     14 C         141.2434  139.9010  160.5594 C.ar    1  UNL1        0.2554
     15 N         142.6278  140.1307  160.0294 N.ar    1  UNL1       -0.1940
     16 C         143.0031  139.6254  158.6678 C.ar    1  UNL1        0.1452
     17 N         144.3874  139.8551  158.1380 N.pl3   1  UNL1       -0.3415
     18 H         139.8470  137.5941  156.6409 H       1  UNL1        0.1438
     19 H         138.6921  137.7750  157.8823 H       1  UNL1        0.1438
     20 H         145.0497  140.3375  158.6839 H       1  UNL1        0.1438
     21 H         144.6338  139.5235  157.2444 H       1  UNL1        0.1438
     22 C         142.8861  136.9866  156.3100 C.2     1  UNL1        0.4090
     23 O         143.0275  136.0934  157.5067 O.2     1  UNL1       -0.2258
     24 N         142.3693  138.3851  156.4747 N.am    1  UNL1       -0.2181
     25 C         142.2279  139.2783  155.2779 C.3     1  UNL1        0.1237
     26 C         142.3212  135.5882  154.1943 C.3     1  UNL1        0.2574
     27 O         143.2614  136.4812  154.9484 O.3     1  UNL1       -0.4302
     28 C         137.7971  138.2013  166.5482 C.1     1  UNL1        0.1004
     29 N         137.0398  137.7147  167.7480 N.1     1  UNL1       -0.1908
     30 C         140.7647  142.9941  164.8119 C.3     1  UNL1        0.0762
     31 C         141.2301  142.7801  166.2219 C.ar    1  UNL1        0.0113
     32 C         140.2768  142.9733  167.3638 C.ar    1  UNL1       -0.0017
     33 C         140.7421  142.7595  168.7736 C.ar    1  UNL1       -0.0002
     34 C         142.1607  142.3524  169.0415 C.ar    1  UNL1        0.0023
     35 C         143.1140  142.1592  167.8996 C.ar    1  UNL1        0.0293
     36 C         142.6487  142.3731  166.4898 C.ar    1  UNL1        0.1365
     37 F         143.6019  142.1799  165.3479 F       1  UNL1       -0.2045
@<TRIPOS>BOND
     1    26    27    1
     2    27    22    1
     3    22    23    2
     4    22    24   am
     5    24    25    1
     6    24    10    1
     7    10    11   ar
     8    11    12    1
     9    11    13   ar
    10    13    14   ar
    11    14     1    1
    12     1     2   ar
    13     2     3   ar
    14     3    30    1
    15    30    31    1
    16    31    32   ar
    17    32    33   ar
    18    33    34   ar
    19    34    35   ar
    20    35    36   ar
    21    36    37    1
    22     3     4   ar
    23     4     5   ar
    24     5     6   ar
    25     6    28    1
    26    28    29    3
    27     6     7   ar
    28     7     8   ar
    29     8     9   ar
    30    14    15   ar
    31    15    16   ar
    32    16    17    1
    33    16    10   ar
    34     9     1   ar
    35    36    31   ar
    36     9     4   ar
    37    12    18    1
    38    12    19    1
    39    17    20    1
    40    17    21    1
@<TRIPOS>MOLECULE
*****
 37 40 0 0 0
SMALL
GASTEIGER

@<TRIPOS>ATOM
      1 N         141.9546  138.4492  160.9578 N.ar    1  UNL1       -0.1967
      2 N         143.2239  138.8130  161.6696 N.ar    1  UNL1       -0.1666
      3 C         142.9358  138.8498  163.1412 C.ar    1  UNL1        0.0849
      4 C         141.4885  138.5088  163.3389 C.ar    1  UNL1        0.0340
      5 C         140.6446  138.3917  164.5734 C.ar    1  UNL1        0.0130
      6 C         139.1942  138.0270  164.4584 C.ar    1  UNL1        0.0686
      7 C         138.5877  137.7794  163.1090 C.ar    1  UNL1        0.0118
      8 C         139.4317  137.8965  161.8746 C.ar    1  UNL1        0.0200
      9 C         140.8821  138.2612  161.9895 C.ar    1  UNL1        0.0871
     10 C         141.4523  138.0006  156.5085 C.ar    1  UNL1        0.1194
     11 C         142.7914  137.7604  157.1401 C.ar    1  UNL1        0.1452
     12 N         143.9632  137.3706  156.2885 N.pl3   1  UNL1       -0.3415
     13 N         142.9588  137.9099  158.6232 N.ar    1  UNL1       -0.1940
     14 C         141.7872  138.2997  159.4747 C.ar    1  UNL1        0.2554
     15 N         140.4479  138.5399  158.8431 N.ar    1  UNL1       -0.1940
     16 C         140.2805  138.3904  157.3600 C.ar    1  UNL1        0.1452
     17 N         138.9414  138.6306  156.7285 N.pl3   1  UNL1       -0.3415
     18 H         143.8533  137.2725  155.3151 H       1  UNL1        0.1438
     19 H         144.8421  137.2129  156.7031 H       1  UNL1        0.1438
     20 H         138.1723  138.8864  157.2874 H       1  UNL1        0.1438
     21 H         138.8314  138.5325  155.7551 H       1  UNL1        0.1438
     22 C         140.9836  136.5048  154.4366 C.2     1  UNL1        0.4090
     23 O         140.8498  135.3080  155.3310 O.2     1  UNL1       -0.2258
     24 N         141.2848  137.8511  155.0253 N.am    1  UNL1       -0.2181
     25 C         141.4187  139.0478  154.1310 C.3     1  UNL1        0.1237
     26 C         141.5412  135.2639  152.2231 C.3     1  UNL1        0.2574
     27 O         140.8162  136.3551  152.9535 O.3     1  UNL1       -0.4302
     28 C         138.3501  137.9099  165.6929 C.1     1  UNL1        0.1004
     29 N         137.5060  137.7928  166.9273 N.1     1  UNL1       -0.1908
     30 C         143.9219  139.1713  164.2249 C.3     1  UNL1        0.0762
     31 C         143.4430  139.7222  165.5353 C.ar    1  UNL1        0.0113
     32 C         143.0797  141.1730  165.6512 C.ar    1  UNL1       -0.0017
     33 C         142.6009  141.7240  166.9615 C.ar    1  UNL1       -0.0002
     34 C         142.4854  140.8242  168.1561 C.ar    1  UNL1        0.0023
     35 C         142.8487  139.3734  168.0403 C.ar    1  UNL1        0.0293
     36 C         143.3275  138.8225  166.7299 C.ar    1  UNL1        0.1365
     37 F         143.6909  137.3717  166.6141 F       1  UNL1       -0.2045
@<TRIPOS>BOND
     1    26    27    1
     2    27    22    1
     3    22    23    2
     4    22    24   am
     5    24    25    1
     6    24    10    1
     7    10    11   ar
     8    11    12    1
     9    11    13   ar
    10    13    14   ar
    11    14     1    1
    12     1     2   ar
    13     2     3   ar
    14     3    30    1
    15    30    31    1
    16    31    32   ar
    17    32    33   ar
    18    33    34   ar
    19    34    35   ar
    20    35    36   ar
    21    36    37    1
    22     3     4   ar
    23     4     5   ar
    24     5     6   ar
    25     6    28    1
    26    28    29    3
    27     6     7   ar
    28     7     8   ar
    29     8     9   ar
    30    14    15   ar
    31    15    16   ar
    32    16    17    1
    33    16    10   ar
    34     9     1   ar
    35    36    31   ar
    36     9     4   ar
    37    12    18    1
    38    12    19    1
    39    17    20    1
    40    17    21    1
@<TRIPOS>MOLECULE
*****
 37 40 0 0 0
SMALL
GASTEIGER

@<TRIPOS>ATOM
      1 N         140.9160  139.6984  159.9279 N.ar    1  UNL1       -0.1967
      2 N         141.3350  141.1226  160.1423 N.ar    1  UNL1       -0.1666
      3 C         140.9428  141.5164  161.5355 C.ar    1  UNL1        0.0849
      4 C         140.2813  140.3355  162.1822 C.ar    1  UNL1        0.0340
      5 C         139.6919  140.1383  163.5473 C.ar    1  UNL1        0.0130
      6 C         139.0860  138.8174  163.9188 C.ar    1  UNL1        0.0686
      7 C         139.0694  137.6938  162.9252 C.ar    1  UNL1        0.0118
      8 C         139.6588  137.8911  161.5601 C.ar    1  UNL1        0.0200
      9 C         140.2647  139.2119  161.1886 C.ar    1  UNL1        0.0871
     10 C         141.5084  137.3050  156.1634 C.ar    1  UNL1        0.1194
     11 C         142.6814  137.9669  156.8237 C.ar    1  UNL1        0.1452
     12 N         144.0518  137.8311  156.2293 N.pl3   1  UNL1       -0.3415
     13 N         142.4839  138.7647  158.0786 N.ar    1  UNL1       -0.1940
     14 C         141.1135  138.9006  158.6731 C.ar    1  UNL1        0.2554
     15 N         139.9405  138.2386  158.0127 N.ar    1  UNL1       -0.1940
     16 C         140.1380  137.4408  156.7579 C.ar    1  UNL1        0.1452
     17 N         138.9650  136.7789  156.0977 N.pl3   1  UNL1       -0.3415
     18 H         144.1814  137.3075  155.4057 H       1  UNL1        0.1438
     19 H         144.8216  138.2655  156.6627 H       1  UNL1        0.1438
     20 H         138.0656  136.8681  156.4879 H       1  UNL1        0.1438
     21 H         139.0946  136.2553  155.2741 H       1  UNL1        0.1438
     22 C         142.0498  135.0496  154.9930 C.2     1  UNL1        0.4090
     23 O         142.1961  134.3898  156.3321 O.2     1  UNL1       -0.2258
     24 N         141.7059  136.5072  154.9086 N.am    1  UNL1       -0.2181
     25 C         141.5596  137.1670  153.5695 C.3     1  UNL1        0.1237
     26 C         142.5885  132.7935  153.8225 C.3     1  UNL1        0.2574
     27 O         142.2473  134.2517  153.7382 O.3     1  UNL1       -0.4302
     28 C         138.4966  138.6201  165.2841 C.1     1  UNL1        0.1004
     29 N         137.9071  138.4228  166.6492 N.1     1  UNL1       -0.1908
     30 C         141.1718  142.8558  162.1707 C.3     1  UNL1        0.0762
     31 C         140.1488  143.4262  163.1079 C.ar    1  UNL1        0.0113
     32 C         138.7720  143.7502  162.6084 C.ar    1  UNL1       -0.0017
     33 C         137.7491  144.3206  163.5455 C.ar    1  UNL1       -0.0002
     34 C         138.1030  144.5669  164.9822 C.ar    1  UNL1        0.0023
     35 C         139.4797  144.2429  165.4817 C.ar    1  UNL1        0.0293
     36 C         140.5027  143.6726  164.5446 C.ar    1  UNL1        0.1365
     37 F         141.8794  143.3486  165.0441 F       1  UNL1       -0.2045
@<TRIPOS>BOND
     1    26    27    1
     2    27    22    1
     3    22    23    2
     4    22    24   am
     5    24    25    1
     6    24    10    1
     7    10    11   ar
     8    11    12    1
     9    11    13   ar
    10    13    14   ar
    11    14     1    1
    12     1     2   ar
    13     2     3   ar
    14     3    30    1
    15    30    31    1
    16    31    32   ar
    17    32    33   ar
    18    33    34   ar
    19    34    35   ar
    20    35    36   ar
    21    36    37    1
    22     3     4   ar
    23     4     5   ar
    24     5     6   ar
    25     6    28    1
    26    28    29    3
    27     6     7   ar
    28     7     8   ar
    29     8     9   ar
    30    14    15   ar
    31    15    16   ar
    32    16    17    1
    33    16    10   ar
    34     9     1   ar
    35    36    31   ar
    36     9     4   ar
    37    12    18    1
    38    12    19    1
    39    17    20    1
    40    17    21    1
@<TRIPOS>MOLECULE
*****
 37 40 0 0 0
SMALL
GASTEIGER

@<TRIPOS>ATOM
      1 N         140.9896  139.7101  160.2856 N.ar    1  UNL1       -0.1967
      2 N         141.4508  141.1053  160.5868 N.ar    1  UNL1       -0.1666
      3 C         141.0530  141.4308  161.9960 C.ar    1  UNL1        0.0849
      4 C         140.3460  140.2368  162.5657 C.ar    1  UNL1        0.0340
      5 C         139.7329  139.9805  163.9104 C.ar    1  UNL1        0.0130
      6 C         139.0805  138.6608  164.1980 C.ar    1  UNL1        0.0686
      7 C         139.0413  137.5973  163.1408 C.ar    1  UNL1        0.0118
      8 C         139.6544  137.8536  161.7961 C.ar    1  UNL1        0.0200
      9 C         140.3068  139.1733  161.5085 C.ar    1  UNL1        0.0871
     10 C         141.5551  137.5195  156.3956 C.ar    1  UNL1        0.1194
     11 C         140.2010  137.5684  157.0389 C.ar    1  UNL1        0.1452
     12 N         139.0353  136.8870  156.3855 N.pl3   1  UNL1       -0.3415
     13 N         140.0125  138.2986  158.3355 N.ar    1  UNL1       -0.1940
     14 C         141.1781  138.9799  158.9889 C.ar    1  UNL1        0.2554
     15 N         142.5324  138.9310  158.3456 N.ar    1  UNL1       -0.1940
     16 C         142.7208  138.2008  157.0490 C.ar    1  UNL1        0.1452
     17 N         144.0750  138.1519  156.4058 N.pl3   1  UNL1       -0.3415
     18 H         139.1590  136.4078  155.5345 H       1  UNL1        0.1438
     19 H         138.1464  136.9191  156.8077 H       1  UNL1        0.1438
     20 H         144.8401  138.5991  156.8347 H       1  UNL1        0.1438
     21 H         144.1988  137.6727  155.5548 H       1  UNL1        0.1438
     22 C         142.1418  135.3431  155.1038 C.2     1  UNL1        0.4090
     23 O         142.3516  134.6272  156.4051 O.2     1  UNL1       -0.2258
     24 N         141.7436  136.7892  155.0990 N.am    1  UNL1       -0.2181
     25 C         141.5339  137.5051  153.7977 C.3     1  UNL1        0.1237
     26 C         141.6615  133.2881  153.5883 C.3     1  UNL1        0.2574
     27 O         142.3303  134.6128  153.8072 O.3     1  UNL1       -0.4302
     28 C         138.4673  138.4044  165.5428 C.1     1  UNL1        0.1004
     29 N         137.8542  138.1481  166.8875 N.1     1  UNL1       -0.1908
     30 C         141.3161  142.7233  162.7102 C.3     1  UNL1        0.0762
     31 C         140.2315  143.3647  163.5242 C.ar    1  UNL1        0.0113
     32 C         140.4625  143.6685  164.9748 C.ar    1  UNL1       -0.0017
     33 C         139.3780  144.3099  165.7887 C.ar    1  UNL1       -0.0002
     34 C         138.0625  144.6475  165.1519 C.ar    1  UNL1        0.0023
     35 C         137.8315  144.3437  163.7013 C.ar    1  UNL1        0.0293
     36 C         138.9160  143.7023  162.8874 C.ar    1  UNL1        0.1365
     37 F         138.6850  143.3986  161.4367 F       1  UNL1       -0.2045
@<TRIPOS>BOND
     1    26    27    1
     2    27    22    1
     3    22    23    2
     4    22    24   am
     5    24    25    1
     6    24    10    1
     7    10    11   ar
     8    11    12    1
     9    11    13   ar
    10    13    14   ar
    11    14     1    1
    12     1     2   ar
    13     2     3   ar
    14     3    30    1
    15    30    31    1
    16    31    32   ar
    17    32    33   ar
    18    33    34   ar
    19    34    35   ar
    20    35    36   ar
    21    36    37    1
    22     3     4   ar
    23     4     5   ar
    24     5     6   ar
    25     6    28    1
    26    28    29    3
    27     6     7   ar
    28     7     8   ar
    29     8     9   ar
    30    14    15   ar
    31    15    16   ar
    32    16    17    1
    33    16    10   ar
    34     9     1   ar
    35    36    31   ar
    36     9     4   ar
    37    12    18    1
    38    12    19    1
    39    17    20    1
    40    17    21    1
@<TRIPOS>MOLECULE
*****
 37 40 0 0 0
SMALL
GASTEIGER

@<TRIPOS>ATOM
      1 N         141.1148  141.2708  163.7276 N.ar    1  UNL1       -0.1967
      2 N         140.0291  141.4983  164.7374 N.ar    1  UNL1       -0.1666
      3 C         140.3525  140.6863  165.9564 C.ar    1  UNL1        0.0849
      4 C         141.6379  139.9570  165.7001 C.ar    1  UNL1        0.0340
      5 C         142.4403  139.0106  166.5430 C.ar    1  UNL1        0.0130
      6 C         143.7137  138.4254  166.0084 C.ar    1  UNL1        0.0686
      7 C         144.1849  138.7867  164.6309 C.ar    1  UNL1        0.0118
      8 C         143.3825  139.7331  163.7880 C.ar    1  UNL1        0.0200
      9 C         142.1091  140.3182  164.3226 C.ar    1  UNL1        0.0871
     10 C         141.3480  143.1212  159.6322 C.ar    1  UNL1        0.1194
     11 C         141.4053  143.9913  160.8528 C.ar    1  UNL1        0.1452
     12 N         141.5402  145.4782  160.7082 N.pl3   1  UNL1       -0.3415
     13 N         141.3275  143.3745  162.2179 N.ar    1  UNL1       -0.1940
     14 C         141.1925  141.8877  162.3625 C.ar    1  UNL1        0.2554
     15 N         141.1353  141.0175  161.1419 N.ar    1  UNL1       -0.1940
     16 C         141.2130  141.6343  159.7768 C.ar    1  UNL1        0.1452
     17 N         141.1558  140.7642  158.5564 N.pl3   1  UNL1       -0.3415
     18 H         141.5913  145.8830  159.8122 H       1  UNL1        0.1438
     19 H         141.5778  146.0493  161.5092 H       1  UNL1        0.1438
     20 H         141.0672  139.7883  158.6513 H       1  UNL1        0.1438
     21 H         141.2068  141.1690  157.6604 H       1  UNL1        0.1438
     22 C         140.1675  144.0925  157.5316 C.2     1  UNL1        0.4090
     23 O         138.8315  143.8302  158.1611 O.2     1  UNL1       -0.2258
     24 N         141.4258  143.7380  158.2671 N.am    1  UNL1       -0.2181
     25 C         142.7617  144.0004  157.6376 C.3     1  UNL1        0.1237
     26 C         139.1155  145.5569  155.6610 C.3     1  UNL1        0.2574
     27 O         140.2451  144.7093  156.1665 O.3     1  UNL1       -0.4302
     28 C         144.5161  137.4790  166.8513 C.1     1  UNL1        0.1004
     29 N         145.3185  136.5326  167.6942 N.1     1  UNL1       -0.1908
     30 C         139.5340  140.6159  167.2115 C.3     1  UNL1        0.0762
     31 C         140.1155  141.0826  168.5132 C.ar    1  UNL1        0.0113
     32 C         140.4140  140.0919  169.5993 C.ar    1  UNL1       -0.0017
     33 C         140.9955  140.5584  170.9009 C.ar    1  UNL1       -0.0002
     34 C         141.2783  142.0157  171.1164 C.ar    1  UNL1        0.0023
     35 C         140.9798  143.0063  170.0304 C.ar    1  UNL1        0.0293
     36 C         140.3984  142.5398  168.7288 C.ar    1  UNL1        0.1365
     37 F         140.0998  143.5304  167.6427 F       1  UNL1       -0.2045
@<TRIPOS>BOND
     1    26    27    1
     2    27    22    1
     3    22    23    2
     4    22    24   am
     5    24    25    1
     6    24    10    1
     7    10    11   ar
     8    11    12    1
     9    11    13   ar
    10    13    14   ar
    11    14     1    1
    12     1     2   ar
    13     2     3   ar
    14     3    30    1
    15    30    31    1
    16    31    32   ar
    17    32    33   ar
    18    33    34   ar
    19    34    35   ar
    20    35    36   ar
    21    36    37    1
    22     3     4   ar
    23     4     5   ar
    24     5     6   ar
    25     6    28    1
    26    28    29    3
    27     6     7   ar
    28     7     8   ar
    29     8     9   ar
    30    14    15   ar
    31    15    16   ar
    32    16    17    1
    33    16    10   ar
    34     9     1   ar
    35    36    31   ar
    36     9     4   ar
    37    12    18    1
    38    12    19    1
    39    17    20    1
    40    17    21    1
