@<TRIPOS>MOLECULE
*****
 26 28 0 0 0
SMALL
GASTEIGER

@<TRIPOS>ATOM
      1 C         137.6960  140.1134  162.4348 C.3     1  UNL1        0.1111
      2 C         137.5616  139.3848  161.1306 C.3     1  UNL1        0.1598
      3 O         138.5059  138.2195  161.1512 O.3     1  UNL1       -0.3519
      4 C         139.2239  138.2280  162.4681 C.3     1  UNL1        0.1480
      5 C         138.7234  139.3985  163.2615 C.3     1  UNL1        0.0704
      6 C         139.1715  139.7861  164.6395 C.ar    1  UNL1       -0.0186
      7 C         138.4520  139.2488  165.8410 C.ar    1  UNL1       -0.0042
      8 C         138.9001  139.6363  167.2190 C.ar    1  UNL1       -0.0003
      9 C         140.0679  140.5612  167.3955 C.ar    1  UNL1        0.0015
     10 C         140.7874  141.0984  166.1941 C.ar    1  UNL1       -0.0003
     11 C         140.3392  140.7109  164.8161 C.ar    1  UNL1       -0.0042
     12 C         140.5160  140.9487  168.7736 C.ar    1  UNL1        0.0214
     13 C         139.9426  140.2527  169.9722 C.ar    1  UNL1        0.0990
     14 N         140.3907  140.6402  171.3503 N.ar    1  UNL1       -0.2400
     15 C         141.4124  141.7238  171.5297 C.ar    1  UNL1        0.1284
     16 C         141.9859  142.4198  170.3310 C.ar    1  UNL1        0.1592
     17 F         143.0075  143.5033  170.5104 F       1  UNL1       -0.2025
     18 C         141.5377  142.0322  168.9530 C.ar    1  UNL1        0.0328
     19 N         136.9364  141.3414  162.8410 N.3     1  UNL1       -0.1819
     20 H         136.2734  141.5389  162.0914 H       1  UNL1        0.1485
     21 S         137.6701  142.6200  163.1179 S.O2    1  UNL1        0.0391
     22 O         137.9888  142.7533  161.6582 O.2     1  UNL1       -0.1576
     23 O         137.3516  142.4868  164.5775 O.2     1  UNL1       -0.1576
     24 C         139.1065  144.6164  162.2807 C.3     1  UNL1        0.0270
     25 C         138.4040  143.8986  163.3947 C.3     1  UNL1        0.1457
     26 C         138.4352  144.4594  164.7856 C.3     1  UNL1        0.0270
@<TRIPOS>BOND
     1    24    25    1
     2    25    26    1
     3    25    21    1
     4    21    22    2
     5    21    23    2
     6    21    19    1
     7     1    19    1
     8     1     2    1
     9     2     3    1
    10     3     4    1
    11     4     5    1
    12     5     6    1
    13     6     7   ar
    14     7     8   ar
    15     8     9   ar
    16     9    12    1
    17    12    13   ar
    18    13    14   ar
    19    14    15   ar
    20    15    16   ar
    21    16    17    1
    22    16    18   ar
    23     9    10   ar
    24    10    11   ar
    25     5     1    1
    26    11     6   ar
    27    18    12   ar
    28    19    20    1
@<TRIPOS>MOLECULE
*****
 26 28 0 0 0
SMALL
GASTEIGER

@<TRIPOS>ATOM
      1 C         142.9226  138.2458  161.7518 C.3     1  UNL1        0.1111
      2 C         143.6407  138.4256  160.4472 C.3     1  UNL1        0.1598
      3 O         144.5090  139.6435  160.5600 O.3     1  UNL1       -0.3519
      4 C         144.3275  140.2164  161.9343 C.3     1  UNL1        0.1480
      5 C         143.3471  139.3525  162.6709 C.3     1  UNL1        0.0704
      6 C         142.8742  139.5592  164.0794 C.ar    1  UNL1       -0.0186
      7 C         143.4937  138.7790  165.2007 C.ar    1  UNL1       -0.0042
      8 C         143.0208  138.9858  166.6090 C.ar    1  UNL1       -0.0003
      9 C         141.9283  139.9727  166.8961 C.ar    1  UNL1        0.0015
     10 C         141.3087  140.7529  165.7748 C.ar    1  UNL1       -0.0003
     11 C         141.7816  140.5462  164.3664 C.ar    1  UNL1       -0.0042
     12 C         141.4554  140.1794  168.3046 C.ar    1  UNL1        0.0214
     13 C         142.4516  140.3583  169.4116 C.ar    1  UNL1        0.0990
     14 N         141.9786  140.5650  170.8200 N.ar    1  UNL1       -0.2400
     15 C         140.5095  140.5927  171.1214 C.ar    1  UNL1        0.1284
     16 C         139.5132  140.4138  170.0143 C.ar    1  UNL1        0.1592
     17 F         138.0441  140.4415  170.3157 F       1  UNL1       -0.2025
     18 C         139.9862  140.2071  168.6059 C.ar    1  UNL1        0.0328
     19 N         141.9507  137.1513  162.0796 N.3     1  UNL1       -0.1819
     20 H         141.7945  136.6284  161.2179 H       1  UNL1        0.1485
     21 S         140.5979  137.4901  162.6318 S.O2    1  UNL1        0.0391
     22 O         140.2438  138.1741  161.3446 O.2     1  UNL1       -0.1576
     23 O         140.9518  136.8060  163.9189 O.2     1  UNL1       -0.1576
     24 C         138.1237  138.1871  162.2541 C.3     1  UNL1        0.0270
     25 C         139.2449  137.8289  163.1839 C.3     1  UNL1        0.1457
     26 C         139.0132  137.8095  164.6657 C.3     1  UNL1        0.0270
@<TRIPOS>BOND
     1    24    25    1
     2    25    26    1
     3    25    21    1
     4    21    22    2
     5    21    23    2
     6    21    19    1
     7     1    19    1
     8     1     2    1
     9     2     3    1
    10     3     4    1
    11     4     5    1
    12     5     6    1
    13     6     7   ar
    14     7     8   ar
    15     8     9   ar
    16     9    12    1
    17    12    13   ar
    18    13    14   ar
    19    14    15   ar
    20    15    16   ar
    21    16    17    1
    22    16    18   ar
    23     9    10   ar
    24    10    11   ar
    25     5     1    1
    26    11     6   ar
    27    18    12   ar
    28    19    20    1
@<TRIPOS>MOLECULE
*****
 26 28 0 0 0
SMALL
GASTEIGER

@<TRIPOS>ATOM
      1 C         139.4772  138.1650  162.1786 C.3     1  UNL1        0.1111
      2 C         138.8608  138.0488  160.8160 C.3     1  UNL1        0.1598
      3 O         137.8177  139.1190  160.6863 O.3     1  UNL1       -0.3519
      4 C         137.7895  139.8965  161.9688 C.3     1  UNL1        0.1480
      5 C         138.8151  139.3069  162.8910 C.3     1  UNL1        0.0704
      6 C         139.1243  139.7768  164.2816 C.ar    1  UNL1       -0.0186
      7 C         139.9806  140.9906  164.4901 C.ar    1  UNL1       -0.0042
      8 C         140.2897  141.4604  165.8807 C.ar    1  UNL1       -0.0003
      9 C         139.7426  140.7164  167.0627 C.ar    1  UNL1        0.0015
     10 C         138.8864  139.5026  166.8542 C.ar    1  UNL1       -0.0003
     11 C         138.5773  139.0328  165.4637 C.ar    1  UNL1       -0.0042
     12 C         140.0518  141.1863  168.4533 C.ar    1  UNL1        0.0214
     13 C         139.8985  140.2480  169.6135 C.ar    1  UNL1        0.0990
     14 N         140.2077  140.7179  171.0041 N.ar    1  UNL1       -0.2400
     15 C         140.6702  142.1261  171.2344 C.ar    1  UNL1        0.1284
     16 C         140.8235  143.0644  170.0741 C.ar    1  UNL1        0.1592
     17 F         141.2860  144.4726  170.3045 F       1  UNL1       -0.2025
     18 C         140.5143  142.5945  168.6836 C.ar    1  UNL1        0.0328
     19 N         140.5648  137.2924  162.7315 N.3     1  UNL1       -0.1819
     20 H         140.1181  136.6341  163.3700 H       1  UNL1        0.1485
     21 S         141.7132  137.9061  163.4760 S.O2    1  UNL1        0.0391
     22 O         142.0639  138.7189  162.2651 O.2     1  UNL1       -0.1576
     23 O         141.3626  137.0934  164.6870 O.2     1  UNL1       -0.1576
     24 C         144.0114  139.1179  163.4650 C.3     1  UNL1        0.0270
     25 C         142.8617  138.5199  164.2205 C.3     1  UNL1        0.1457
     26 C         142.8606  138.5358  165.7204 C.3     1  UNL1        0.0270
@<TRIPOS>BOND
     1    24    25    1
     2    25    26    1
     3    25    21    1
     4    21    22    2
     5    21    23    2
     6    21    19    1
     7     1    19    1
     8     1     2    1
     9     2     3    1
    10     3     4    1
    11     4     5    1
    12     5     6    1
    13     6     7   ar
    14     7     8   ar
    15     8     9   ar
    16     9    12    1
    17    12    13   ar
    18    13    14   ar
    19    14    15   ar
    20    15    16   ar
    21    16    17    1
    22    16    18   ar
    23     9    10   ar
    24    10    11   ar
    25     5     1    1
    26    11     6   ar
    27    18    12   ar
    28    19    20    1
@<TRIPOS>MOLECULE
*****
 26 28 0 0 0
SMALL
GASTEIGER

@<TRIPOS>ATOM
      1 C         142.6322  137.9056  162.0401 C.3     1  UNL1        0.1111
      2 C         143.3952  137.7441  160.7588 C.3     1  UNL1        0.1598
      3 O         144.4668  138.7931  160.7220 O.3     1  UNL1       -0.3519
      4 C         144.3660  139.6029  161.9806 C.3     1  UNL1        0.1480
      5 C         143.2322  139.0543  162.7952 C.3     1  UNL1        0.0704
      6 C         142.7782  139.5650  164.1306 C.ar    1  UNL1       -0.0186
      7 C         141.8697  140.7560  164.2088 C.ar    1  UNL1       -0.0042
      8 C         141.4157  141.2666  165.5441 C.ar    1  UNL1       -0.0003
      9 C         141.8702  140.5861  166.8013 C.ar    1  UNL1        0.0015
     10 C         142.7786  139.3951  166.7231 C.ar    1  UNL1       -0.0003
     11 C         143.2326  138.8845  165.3878 C.ar    1  UNL1       -0.0042
     12 C         141.4161  141.0968  168.1366 C.ar    1  UNL1        0.0214
     13 C         141.2301  140.1441  169.2802 C.ar    1  UNL1        0.0990
     14 N         140.7761  140.6547  170.6156 N.ar    1  UNL1       -0.2400
     15 C         140.5080  142.1181  170.8073 C.ar    1  UNL1        0.1284
     16 C         140.6940  143.0708  169.6637 C.ar    1  UNL1        0.1592
     17 F         140.4260  144.5341  169.8554 F       1  UNL1       -0.2025
     18 C         141.1481  142.5601  168.3284 C.ar    1  UNL1        0.0328
     19 N         141.4728  137.0657  162.4877 N.3     1  UNL1       -0.1819
     20 H         141.3200  136.3646  161.7627 H       1  UNL1        0.1485
     21 S         140.1435  137.7054  162.7585 S.O2    1  UNL1        0.0391
     22 O         140.2656  137.3450  164.2094 O.2     1  UNL1       -0.1576
     23 O         140.0213  138.0659  161.3076 O.2     1  UNL1       -0.1576
     24 C         138.5137  138.9038  164.3887 C.3     1  UNL1        0.0270
     25 C         138.8141  138.3452  163.0294 C.3     1  UNL1        0.1457
     26 C         137.7851  138.4264  161.9411 C.3     1  UNL1        0.0270
@<TRIPOS>BOND
     1    24    25    1
     2    25    26    1
     3    25    21    1
     4    21    22    2
     5    21    23    2
     6    21    19    1
     7     1    19    1
     8     1     2    1
     9     2     3    1
    10     3     4    1
    11     4     5    1
    12     5     6    1
    13     6     7   ar
    14     7     8   ar
    15     8     9   ar
    16     9    12    1
    17    12    13   ar
    18    13    14   ar
    19    14    15   ar
    20    15    16   ar
    21    16    17    1
    22    16    18   ar
    23     9    10   ar
    24    10    11   ar
    25     5     1    1
    26    11     6   ar
    27    18    12   ar
    28    19    20    1
@<TRIPOS>MOLECULE
*****
 26 28 0 0 0
SMALL
GASTEIGER

@<TRIPOS>ATOM
      1 C         143.6759  138.7964  162.2121 C.3     1  UNL1        0.1111
      2 C         143.5577  138.0035  160.9443 C.3     1  UNL1        0.1598
      3 O         142.2279  137.3094  160.9539 O.3     1  UNL1       -0.3519
      4 C         141.5244  137.6734  162.2277 C.3     1  UNL1        0.1480
      5 C         142.4193  138.5924  163.0053 C.3     1  UNL1        0.0704
      6 C         142.1115  139.2006  164.3415 C.ar    1  UNL1       -0.0186
      7 C         142.7895  138.6828  165.5753 C.ar    1  UNL1       -0.0042
      8 C         142.4817  139.2910  166.9114 C.ar    1  UNL1       -0.0003
      9 C         141.4960  140.4170  167.0138 C.ar    1  UNL1        0.0015
     10 C         140.8181  140.9348  165.7800 C.ar    1  UNL1       -0.0003
     11 C         141.1258  140.3266  164.4439 C.ar    1  UNL1       -0.0042
     12 C         141.1883  141.0252  168.3500 C.ar    1  UNL1        0.0214
     13 C         141.0350  140.1471  169.5564 C.ar    1  UNL1        0.0990
     14 N         140.7273  140.7553  170.8926 N.ar    1  UNL1       -0.2400
     15 C         140.5728  142.2416  171.0224 C.ar    1  UNL1        0.1284
     16 C         140.7260  143.1198  169.8160 C.ar    1  UNL1        0.1592
     17 F         140.5715  144.6062  169.9458 F       1  UNL1       -0.2025
     18 C         141.0337  142.5116  168.4798 C.ar    1  UNL1        0.0328
     19 N         144.8455  139.6443  162.6158 N.3     1  UNL1       -0.1819
     20 H         145.3076  139.1612  163.3861 H       1  UNL1        0.1485
     21 S         144.6274  141.0599  163.0612 S.O2    1  UNL1        0.0391
     22 O         145.3047  140.7542  164.3643 O.2     1  UNL1       -0.1576
     23 O         143.9502  141.3657  161.7582 O.2     1  UNL1       -0.1576
     24 C         144.4429  143.5909  162.5043 C.3     1  UNL1        0.0270
     25 C         144.4094  142.4755  163.5067 C.3     1  UNL1        0.1457
     26 C         144.1578  142.7758  164.9547 C.3     1  UNL1        0.0270
@<TRIPOS>BOND
     1    24    25    1
     2    25    26    1
     3    25    21    1
     4    21    22    2
     5    21    23    2
     6    21    19    1
     7     1    19    1
     8     1     2    1
     9     2     3    1
    10     3     4    1
    11     4     5    1
    12     5     6    1
    13     6     7   ar
    14     7     8   ar
    15     8     9   ar
    16     9    12    1
    17    12    13   ar
    18    13    14   ar
    19    14    15   ar
    20    15    16   ar
    21    16    17    1
    22    16    18   ar
    23     9    10   ar
    24    10    11   ar
    25     5     1    1
    26    11     6   ar
    27    18    12   ar
    28    19    20    1
@<TRIPOS>MOLECULE
*****
 26 28 0 0 0
SMALL
GASTEIGER

@<TRIPOS>ATOM
      1 C         143.6579  143.2640  161.7314 C.3     1  UNL1        0.1111
      2 C         144.2064  142.8051  160.4129 C.3     1  UNL1        0.1598
      3 O         144.4465  141.3270  160.4998 O.3     1  UNL1       -0.3519
      4 C         144.0464  140.8724  161.8721 C.3     1  UNL1        0.1480
      5 C         143.5590  142.0695  162.6333 C.3     1  UNL1        0.0704
      6 C         143.0602  142.0717  164.0480 C.ar    1  UNL1       -0.0186
      7 C         143.9371  142.5845  165.1516 C.ar    1  UNL1       -0.0042
      8 C         143.4383  142.5866  166.5662 C.ar    1  UNL1       -0.0003
      9 C         142.0626  142.0761  166.8772 C.ar    1  UNL1        0.0015
     10 C         141.1857  141.5634  165.7736 C.ar    1  UNL1       -0.0003
     11 C         141.6845  141.5612  164.3590 C.ar    1  UNL1       -0.0042
     12 C         141.5639  142.0783  168.2919 C.ar    1  UNL1        0.0214
     13 C         142.4172  142.6459  169.3871 C.ar    1  UNL1        0.0990
     14 N         141.9184  142.6481  170.8018 N.ar    1  UNL1       -0.2400
     15 C         140.5663  142.0827  171.1212 C.ar    1  UNL1        0.1284
     16 C         139.7129  141.5151  170.0259 C.ar    1  UNL1        0.1592
     17 F         138.3608  140.9497  170.3453 F       1  UNL1       -0.2025
     18 C         140.2117  141.5129  168.6113 C.ar    1  UNL1        0.0328
     19 N         143.2754  144.6705  162.0858 N.3     1  UNL1       -0.1819
     20 H         143.8354  144.9323  162.8971 H       1  UNL1        0.1485
     21 S         141.8503  144.9989  162.4191 S.O2    1  UNL1        0.0391
     22 O         141.4286  144.5605  161.0480 O.2     1  UNL1       -0.1576
     23 O         142.2720  145.4372  163.7902 O.2     1  UNL1       -0.1576
     24 C         139.6272  146.2135  161.8425 C.3     1  UNL1        0.0270
     25 C         140.4252  145.3273  162.7524 C.3     1  UNL1        0.1457
     26 C         139.7979  144.7696  163.9956 C.3     1  UNL1        0.0270
@<TRIPOS>BOND
     1    24    25    1
     2    25    26    1
     3    25    21    1
     4    21    22    2
     5    21    23    2
     6    21    19    1
     7     1    19    1
     8     1     2    1
     9     2     3    1
    10     3     4    1
    11     4     5    1
    12     5     6    1
    13     6     7   ar
    14     7     8   ar
    15     8     9   ar
    16     9    12    1
    17    12    13   ar
    18    13    14   ar
    19    14    15   ar
    20    15    16   ar
    21    16    17    1
    22    16    18   ar
    23     9    10   ar
    24    10    11   ar
    25     5     1    1
    26    11     6   ar
    27    18    12   ar
    28    19    20    1
@<TRIPOS>MOLECULE
*****
 26 28 0 0 0
SMALL
GASTEIGER

@<TRIPOS>ATOM
      1 C         140.6369  141.2695  169.2218 C.3     1  UNL1        0.1111
      2 C         140.5586  141.4824  170.7046 C.3     1  UNL1        0.1598
      3 O         140.5698  142.9602  170.9619 O.3     1  UNL1       -0.3519
      4 C         140.6550  143.6605  169.6381 C.3     1  UNL1        0.1480
      5 C         140.6965  142.6156  168.5627 C.3     1  UNL1        0.0704
      6 C         140.7826  142.8719  167.0872 C.ar    1  UNL1       -0.0186
      7 C         142.0310  142.5162  166.3358 C.ar    1  UNL1       -0.0042
      8 C         142.1170  142.7725  164.8603 C.ar    1  UNL1       -0.0003
      9 C         140.9545  143.3845  164.1364 C.ar    1  UNL1        0.0015
     10 C         139.7060  143.7402  164.8879 C.ar    1  UNL1       -0.0003
     11 C         139.6200  143.4839  166.3633 C.ar    1  UNL1       -0.0042
     12 C         141.0405  143.6407  162.6609 C.ar    1  UNL1        0.0214
     13 C         142.2765  144.2589  162.0779 C.ar    1  UNL1        0.0990
     14 N         142.3625  144.5152  160.6024 N.ar    1  UNL1       -0.2400
     15 C         141.2124  144.1533  159.7100 C.ar    1  UNL1        0.1284
     16 C         139.9763  143.5350  160.2932 C.ar    1  UNL1        0.1592
     17 F         138.8263  143.1731  159.4008 F       1  UNL1       -0.2025
     18 C         139.8904  143.2788  161.7686 C.ar    1  UNL1        0.0328
     19 N         140.6529  139.9433  168.5212 N.3     1  UNL1       -0.1819
     20 H         141.5106  139.9117  167.9701 H       1  UNL1        0.1485
     21 S         139.5312  139.5689  167.5984 S.O2    1  UNL1        0.0391
     22 O         140.4921  139.5276  166.4473 O.2     1  UNL1       -0.1576
     23 O         138.5704  139.6102  168.7494 O.2     1  UNL1       -0.1576
     24 C         137.4465  138.1129  167.0657 C.3     1  UNL1        0.0270
     25 C         138.4096  139.1946  166.6754 C.3     1  UNL1        0.1457
     26 C         138.2512  139.9019  165.3622 C.3     1  UNL1        0.0270
@<TRIPOS>BOND
     1    24    25    1
     2    25    26    1
     3    25    21    1
     4    21    22    2
     5    21    23    2
     6    21    19    1
     7     1    19    1
     8     1     2    1
     9     2     3    1
    10     3     4    1
    11     4     5    1
    12     5     6    1
    13     6     7   ar
    14     7     8   ar
    15     8     9   ar
    16     9    12    1
    17    12    13   ar
    18    13    14   ar
    19    14    15   ar
    20    15    16   ar
    21    16    17    1
    22    16    18   ar
    23     9    10   ar
    24    10    11   ar
    25     5     1    1
    26    11     6   ar
    27    18    12   ar
    28    19    20    1
@<TRIPOS>MOLECULE
*****
 26 28 0 0 0
SMALL
GASTEIGER

@<TRIPOS>ATOM
      1 C         139.8055  143.8558  160.9267 C.3     1  UNL1        0.1111
      2 C         140.3821  144.4665  159.6839 C.3     1  UNL1        0.1598
      3 O         141.8118  144.8240  159.9634 O.3     1  UNL1       -0.3519
      4 C         142.1188  144.4342  161.3789 C.3     1  UNL1        0.1480
      5 C         140.8788  143.8358  161.9743 C.3     1  UNL1        0.0704
      6 C         140.7371  143.3098  163.3719 C.ar    1  UNL1       -0.0186
      7 C         139.9697  144.0944  164.3944 C.ar    1  UNL1       -0.0042
      8 C         139.8281  143.5683  165.7919 C.ar    1  UNL1       -0.0003
      9 C         140.4538  142.2577  166.1670 C.ar    1  UNL1        0.0015
     10 C         141.2212  141.4731  165.1446 C.ar    1  UNL1       -0.0003
     11 C         141.3628  141.9991  163.7470 C.ar    1  UNL1       -0.0042
     12 C         140.3121  141.7317  167.5646 C.ar    1  UNL1        0.0214
     13 C         140.3325  140.2529  167.8151 C.ar    1  UNL1        0.0990
     14 N         140.1908  139.7269  169.2127 N.ar    1  UNL1       -0.2400
     15 C         140.0287  140.6797  170.3598 C.ar    1  UNL1        0.1284
     16 C         140.0082  142.1586  170.1093 C.ar    1  UNL1        0.1592
     17 F         139.8461  143.1114  171.2564 F       1  UNL1       -0.2025
     18 C         140.1499  142.6845  168.7117 C.ar    1  UNL1        0.0328
     19 N         138.4019  143.3533  161.0927 N.3     1  UNL1       -0.1819
     20 H         137.9260  144.0086  161.7128 H       1  UNL1        0.1485
     21 S         138.1572  141.9799  161.6439 S.O2    1  UNL1        0.0391
     22 O         139.0287  141.3946  160.5725 O.2     1  UNL1       -0.1576
     23 O         137.2857  142.5652  162.7153 O.2     1  UNL1       -0.1576
     24 C         137.6866  139.4534  161.2627 C.3     1  UNL1        0.0270
     25 C         137.9125  140.6065  162.1951 C.3     1  UNL1        0.1457
     26 C         137.8938  140.3861  163.6787 C.3     1  UNL1        0.0270
@<TRIPOS>BOND
     1    24    25    1
     2    25    26    1
     3    25    21    1
     4    21    22    2
     5    21    23    2
     6    21    19    1
     7     1    19    1
     8     1     2    1
     9     2     3    1
    10     3     4    1
    11     4     5    1
    12     5     6    1
    13     6     7   ar
    14     7     8   ar
    15     8     9   ar
    16     9    12    1
    17    12    13   ar
    18    13    14   ar
    19    14    15   ar
    20    15    16   ar
    21    16    17    1
    22    16    18   ar
    23     9    10   ar
    24    10    11   ar
    25     5     1    1
    26    11     6   ar
    27    18    12   ar
    28    19    20    1
@<TRIPOS>MOLECULE
*****
 26 28 0 0 0
SMALL
GASTEIGER

@<TRIPOS>ATOM
      1 C         141.7224  144.1650  161.3895 C.3     1  UNL1        0.1111
      2 C         141.3438  144.2095  159.9387 C.3     1  UNL1        0.1598
      3 O         140.0479  143.4719  159.7751 O.3     1  UNL1       -0.3519
      4 C         139.6258  142.9715  161.1247 C.3     1  UNL1        0.1480
      5 C         140.6607  143.3999  162.1224 C.3     1  UNL1        0.0704
      6 C         140.6378  143.1134  163.5947 C.ar    1  UNL1       -0.0186
      7 C         140.0014  144.0898  164.5389 C.ar    1  UNL1       -0.0042
      8 C         139.9785  143.8033  166.0111 C.ar    1  UNL1       -0.0003
      9 C         140.5921  142.5404  166.5390 C.ar    1  UNL1        0.0015
     10 C         141.2285  141.5640  165.5948 C.ar    1  UNL1       -0.0003
     11 C         141.2513  141.8505  164.1226 C.ar    1  UNL1       -0.0042
     12 C         140.5692  142.2539  168.0113 C.ar    1  UNL1        0.0214
     13 C         140.3717  143.3732  168.9902 C.ar    1  UNL1        0.0990
     14 N         140.3488  143.0867  170.4624 N.ar    1  UNL1       -0.2400
     15 C         140.5234  141.6809  170.9557 C.ar    1  UNL1        0.1284
     16 C         140.7209  140.5617  169.9768 C.ar    1  UNL1        0.1592
     17 F         140.8955  139.1559  170.4701 F       1  UNL1       -0.2025
     18 C         140.7437  140.8482  168.5046 C.ar    1  UNL1        0.0328
     19 N         142.9478  144.7780  162.0000 N.3     1  UNL1       -0.1819
     20 H         143.5556  145.0522  161.2281 H       1  UNL1        0.1485
     21 S         143.7898  143.9818  162.9523 S.O2    1  UNL1        0.0391
     22 O         143.4819  144.9627  164.0446 O.2     1  UNL1       -0.1576
     23 O         144.0977  143.0009  161.8602 O.2     1  UNL1       -0.1576
     24 C         144.5817  143.4785  165.3751 C.3     1  UNL1        0.0270
     25 C         144.6318  143.1856  163.9048 C.3     1  UNL1        0.1457
     26 C         145.5240  142.0967  163.3870 C.3     1  UNL1        0.0270
@<TRIPOS>BOND
     1    24    25    1
     2    25    26    1
     3    25    21    1
     4    21    22    2
     5    21    23    2
     6    21    19    1
     7     1    19    1
     8     1     2    1
     9     2     3    1
    10     3     4    1
    11     4     5    1
    12     5     6    1
    13     6     7   ar
    14     7     8   ar
    15     8     9   ar
    16     9    12    1
    17    12    13   ar
    18    13    14   ar
    19    14    15   ar
    20    15    16   ar
    21    16    17    1
    22    16    18   ar
    23     9    10   ar
    24    10    11   ar
    25     5     1    1
    26    11     6   ar
    27    18    12   ar
    28    19    20    1
