@<TRIPOS>MOLECULE
*****
 29 32 0 0 0
SMALL
GASTEIGER

@<TRIPOS>ATOM
      1 N         141.9144  138.4075  158.3807 N.ar    1  UNL1       -0.2286
      2 C         140.8237  139.4049  158.1247 C.ar    1  UNL1        0.0990
      3 C         140.2893  139.8579  159.4510 C.ar    1  UNL1        0.0338
      4 C         141.0497  139.1405  160.5267 C.ar    1  UNL1        0.0981
      5 N         142.0541  138.2441  159.8652 N.ar    1  UNL1       -0.1680
      6 C         140.5152  139.5935  161.8531 C.3     1  UNL1        0.1414
      7 N         139.4244  140.5910  161.5971 N.am    1  UNL1       -0.2660
      8 C         138.6155  141.3004  162.6421 C.2     1  UNL1        0.2525
      9 O         137.5523  142.2765  162.2330 O.2     1  UNL1       -0.2698
     10 C         139.2848  140.7543  160.1125 C.3     1  UNL1        0.1236
     11 C         143.7541  133.9971  156.3401 C.3     1  UNL1        0.0521
     12 C         143.6433  135.4927  156.3154 C.ar    1  UNL1        0.0609
     13 C         142.8343  136.2023  157.3604 C.ar    1  UNL1        0.0339
     14 C         142.7235  137.6980  157.3357 C.ar    1  UNL1        0.0855
     15 C         143.4217  138.4842  156.2660 C.ar    1  UNL1        0.0398
     16 C         144.2308  137.7746  155.2209 C.ar    1  UNL1        0.1000
     17 N         144.3416  136.2790  155.2456 N.ar    1  UNL1       -0.2480
     18 C         138.8694  141.0339  164.0962 C.ar    1  UNL1        0.0881
     19 C         138.1477  139.9177  164.7913 C.ar    1  UNL1        0.0178
     20 C         138.4017  139.6512  166.2455 C.ar    1  UNL1        0.0688
     21 C         139.3774  140.5007  167.0044 C.ar    1  UNL1        0.0134
     22 C         140.0992  141.6170  166.3093 C.ar    1  UNL1        0.0377
     23 C         139.8452  141.8835  164.8552 C.ar    1  UNL1        0.1427
     24 C         137.6798  138.5350  166.9405 C.1     1  UNL1        0.1004
     25 N         136.9579  137.4188  167.6354 N.1     1  UNL1       -0.1908
     26 O         140.5670  142.9996  164.1601 O.3     1  UNL1       -0.4790
     27 C         139.9130  144.3421  164.0181 C.3     1  UNL1        0.1661
     28 C         140.2531  145.2225  162.8522 C.3     1  UNL1        0.0472
     29 C         138.9189  144.8041  165.0419 C.3     1  UNL1        0.0472
@<TRIPOS>BOND
     1    11    12    1
     2    12    13   ar
     3    13    14   ar
     4    14     1    1
     5     1     2   ar
     6     2     3   ar
     7     3     4   ar
     8     4     5   ar
     9     4     6    1
    10     6     7    1
    11     7     8   am
    12     8     9    2
    13     8    18    1
    14    18    19   ar
    15    19    20   ar
    16    20    24    1
    17    24    25    3
    18    20    21   ar
    19    21    22   ar
    20    22    23   ar
    21    23    26    1
    22    26    27    1
    23    27    28    1
    24    27    29    1
    25     7    10    1
    26    14    15   ar
    27    15    16   ar
    28    16    17   ar
    29    17    12   ar
    30     5     1   ar
    31    23    18   ar
    32    10     3    1
@<TRIPOS>MOLECULE
*****
 29 32 0 0 0
SMALL
GASTEIGER

@<TRIPOS>ATOM
      1 N         143.5273  141.1054  160.5838 N.ar    1  UNL1       -0.2286
      2 C         144.1925  139.9186  161.2154 C.ar    1  UNL1        0.0990
      3 C         143.8038  139.8859  162.6638 C.ar    1  UNL1        0.0338
      4 C         142.8984  141.0524  162.9273 C.ar    1  UNL1        0.0981
      5 N         142.7275  141.8062  161.6417 N.ar    1  UNL1       -0.1680
      6 C         142.5097  141.0196  164.3757 C.3     1  UNL1        0.1414
      7 N         143.1749  139.8328  165.0074 N.am    1  UNL1       -0.2660
      8 C         143.0604  139.4193  166.4447 C.2     1  UNL1        0.2525
      9 O         143.7872  138.2023  166.9352 O.2     1  UNL1       -0.2698
     10 C         143.9747  139.1321  163.9494 C.3     1  UNL1        0.1236
     11 C         145.1837  140.1657  155.7492 C.3     1  UNL1        0.0521
     12 C         144.4700  141.0491  156.7291 C.ar    1  UNL1        0.0609
     13 C         144.3555  140.6356  158.1665 C.ar    1  UNL1        0.0339
     14 C         143.6418  141.5190  159.1465 C.ar    1  UNL1        0.0855
     15 C         143.0427  142.8158  158.6891 C.ar    1  UNL1        0.0398
     16 C         143.1572  143.2293  157.2517 C.ar    1  UNL1        0.1000
     17 N         143.8709  142.3460  156.2718 N.ar    1  UNL1       -0.2480
     18 C         142.2190  140.2228  167.3915 C.ar    1  UNL1        0.0881
     19 C         142.8671  141.2037  168.3231 C.ar    1  UNL1        0.0178
     20 C         142.0257  142.0072  169.2700 C.ar    1  UNL1        0.0688
     21 C         140.5364  141.8298  169.2853 C.ar    1  UNL1        0.0134
     22 C         139.8882  140.8489  168.3537 C.ar    1  UNL1        0.0377
     23 C         140.7296  140.0454  167.4069 C.ar    1  UNL1        0.1427
     24 C         142.6738  142.9881  170.2015 C.1     1  UNL1        0.1004
     25 N         143.3221  143.9690  171.1330 N.1     1  UNL1       -0.1908
     26 O         140.0815  139.0645  166.4753 O.3     1  UNL1       -0.4790
     27 C         138.6214  139.1869  166.1545 C.3     1  UNL1        0.1661
     28 C         137.6180  138.3548  166.8968 C.3     1  UNL1        0.0472
     29 C         138.1645  140.1414  165.0914 C.3     1  UNL1        0.0472
@<TRIPOS>BOND
     1    11    12    1
     2    12    13   ar
     3    13    14   ar
     4    14     1    1
     5     1     2   ar
     6     2     3   ar
     7     3     4   ar
     8     4     5   ar
     9     4     6    1
    10     6     7    1
    11     7     8   am
    12     8     9    2
    13     8    18    1
    14    18    19   ar
    15    19    20   ar
    16    20    24    1
    17    24    25    3
    18    20    21   ar
    19    21    22   ar
    20    22    23   ar
    21    23    26    1
    22    26    27    1
    23    27    28    1
    24    27    29    1
    25     7    10    1
    26    14    15   ar
    27    15    16   ar
    28    16    17   ar
    29    17    12   ar
    30     5     1   ar
    31    23    18   ar
    32    10     3    1
@<TRIPOS>MOLECULE
*****
 29 32 0 0 0
SMALL
GASTEIGER

@<TRIPOS>ATOM
      1 N         142.8908  141.1444  158.7128 N.ar    1  UNL1       -0.2286
      2 C         141.5195  141.7183  158.5128 C.ar    1  UNL1        0.0990
      3 C         140.7980  141.6636  159.8267 C.ar    1  UNL1        0.0338
      4 C         141.7234  141.0560  160.8388 C.ar    1  UNL1        0.0981
      5 N         143.0169  140.7351  160.1504 N.ar    1  UNL1       -0.1680
      6 C         141.0020  141.0014  162.1528 C.3     1  UNL1        0.1414
      7 N         139.6305  141.5752  161.9528 N.am    1  UNL1       -0.2660
      8 C         138.5712  141.7152  163.0054 C.2     1  UNL1        0.2525
      9 O         137.2400  142.3113  162.6553 O.2     1  UNL1       -0.2698
     10 C         139.5045  141.9845  160.5152 C.3     1  UNL1        0.1236
     11 C         147.3797  142.7038  156.6107 C.3     1  UNL1        0.0521
     12 C         146.1947  141.7841  156.6091 C.ar    1  UNL1        0.0609
     13 C         145.1352  141.9241  157.6617 C.ar    1  UNL1        0.0339
     14 C         143.9502  141.0045  157.6602 C.ar    1  UNL1        0.0855
     15 C         143.8246  139.9449  156.6059 C.ar    1  UNL1        0.0398
     16 C         144.8840  139.8050  155.5532 C.ar    1  UNL1        0.1000
     17 N         146.0690  140.7246  155.5548 N.ar    1  UNL1       -0.2480
     18 C         138.8430  141.2590  164.4083 C.ar    1  UNL1        0.0881
     19 C         138.1818  140.0200  164.9354 C.ar    1  UNL1        0.0178
     20 C         138.4535  139.5638  166.3383 C.ar    1  UNL1        0.0688
     21 C         139.3865  140.3464  167.2140 C.ar    1  UNL1        0.0134
     22 C         140.0477  141.5854  166.6869 C.ar    1  UNL1        0.0377
     23 C         139.7760  142.0416  165.2841 C.ar    1  UNL1        0.1427
     24 C         137.7922  138.3249  166.8653 C.1     1  UNL1        0.1004
     25 N         137.1310  137.0859  167.3922 N.1     1  UNL1       -0.1908
     26 O         140.4372  143.2805  164.7570 O.3     1  UNL1       -0.4790
     27 C         139.6178  144.5036  164.4693 C.3     1  UNL1        0.1661
     28 C         139.8342  145.2695  163.1979 C.3     1  UNL1        0.0472
     29 C         138.5819  144.9607  165.4532 C.3     1  UNL1        0.0472
@<TRIPOS>BOND
     1    11    12    1
     2    12    13   ar
     3    13    14   ar
     4    14     1    1
     5     1     2   ar
     6     2     3   ar
     7     3     4   ar
     8     4     5   ar
     9     4     6    1
    10     6     7    1
    11     7     8   am
    12     8     9    2
    13     8    18    1
    14    18    19   ar
    15    19    20   ar
    16    20    24    1
    17    24    25    3
    18    20    21   ar
    19    21    22   ar
    20    22    23   ar
    21    23    26    1
    22    26    27    1
    23    27    28    1
    24    27    29    1
    25     7    10    1
    26    14    15   ar
    27    15    16   ar
    28    16    17   ar
    29    17    12   ar
    30     5     1   ar
    31    23    18   ar
    32    10     3    1
@<TRIPOS>MOLECULE
*****
 29 32 0 0 0
SMALL
GASTEIGER

@<TRIPOS>ATOM
      1 N         139.1806  142.4225  160.1319 N.ar    1  UNL1       -0.2286
      2 C         138.3873  141.2388  160.6002 C.ar    1  UNL1        0.0990
      3 C         138.7859  140.9446  162.0161 C.ar    1  UNL1        0.0338
      4 C         139.8255  141.9465  162.4227 C.ar    1  UNL1        0.0981
      5 N         140.0695  142.8599  161.2582 N.ar    1  UNL1       -0.1680
      6 C         140.2241  141.6523  163.8385 C.3     1  UNL1        0.1414
      7 N         139.4308  140.4685  164.3070 N.am    1  UNL1       -0.2660
      8 C         139.5120  139.8336  165.6635 C.2     1  UNL1        0.2525
      9 O         138.6523  138.6484  165.9897 O.2     1  UNL1       -0.2698
     10 C         138.5419  140.0312  163.1806 C.3     1  UNL1        0.1236
     11 C         140.8116  145.9970  156.7314 C.3     1  UNL1        0.0521
     12 C         139.9149  144.8447  157.0750 C.ar    1  UNL1        0.0609
     13 C         139.9961  144.2097  158.4316 C.ar    1  UNL1        0.0339
     14 C         139.0994  143.0574  158.7753 C.ar    1  UNL1        0.0855
     15 C         138.1214  142.5401  157.7624 C.ar    1  UNL1        0.0398
     16 C         138.0402  143.1751  156.4058 C.ar    1  UNL1        0.1000
     17 N         138.9369  144.3274  156.0621 N.ar    1  UNL1       -0.2480
     18 C         140.4530  140.3838  166.6939 C.ar    1  UNL1        0.0881
     19 C         140.0527  141.5726  167.5164 C.ar    1  UNL1        0.0178
     20 C         140.9938  142.1228  168.5470 C.ar    1  UNL1        0.0688
     21 C         142.3349  141.4843  168.7549 C.ar    1  UNL1        0.0134
     22 C         142.7353  140.2954  167.9324 C.ar    1  UNL1        0.0377
     23 C         141.7943  139.7452  166.9019 C.ar    1  UNL1        0.1427
     24 C         140.5934  143.3116  169.3694 C.1     1  UNL1        0.1004
     25 N         140.1931  144.5003  170.1920 N.1     1  UNL1       -0.1908
     26 O         142.1946  138.5564  166.0794 O.3     1  UNL1       -0.4790
     27 C         142.9076  138.7531  164.7744 C.3     1  UNL1        0.1661
     28 C         142.2713  138.2950  163.4956 C.3     1  UNL1        0.0472
     29 C         144.2569  139.4077  164.7482 C.3     1  UNL1        0.0472
@<TRIPOS>BOND
     1    11    12    1
     2    12    13   ar
     3    13    14   ar
     4    14     1    1
     5     1     2   ar
     6     2     3   ar
     7     3     4   ar
     8     4     5   ar
     9     4     6    1
    10     6     7    1
    11     7     8   am
    12     8     9    2
    13     8    18    1
    14    18    19   ar
    15    19    20   ar
    16    20    24    1
    17    24    25    3
    18    20    21   ar
    19    21    22   ar
    20    22    23   ar
    21    23    26    1
    22    26    27    1
    23    27    28    1
    24    27    29    1
    25     7    10    1
    26    14    15   ar
    27    15    16   ar
    28    16    17   ar
    29    17    12   ar
    30     5     1   ar
    31    23    18   ar
    32    10     3    1
@<TRIPOS>MOLECULE
*****
 29 32 0 0 0
SMALL
GASTEIGER

@<TRIPOS>ATOM
      1 N         142.2642  137.4722  158.2273 N.ar    1  UNL1       -0.2286
      2 C         143.0182  137.3235  159.5155 C.ar    1  UNL1        0.0990
      3 C         142.4247  138.2743  160.5123 C.ar    1  UNL1        0.0338
      4 C         141.3039  139.0106  159.8403 C.ar    1  UNL1        0.0981
      5 N         141.2047  138.5149  158.4281 N.ar    1  UNL1       -0.1680
      6 C         140.7104  139.9614  160.8372 C.3     1  UNL1        0.1414
      7 N         141.4644  139.8127  162.1254 N.am    1  UNL1       -0.2660
      8 C         141.2045  140.5731  163.3919 C.2     1  UNL1        0.2525
      9 O         142.0452  140.3157  164.6073 O.2     1  UNL1       -0.2698
     10 C         142.5238  138.7700  161.9246 C.3     1  UNL1        0.1236
     11 C         143.8848  133.1633  155.8176 C.3     1  UNL1        0.0521
     12 C         143.3344  134.5572  155.7559 C.ar    1  UNL1        0.0609
     13 C         143.0745  135.3178  157.0224 C.ar    1  UNL1        0.0339
     14 C         142.5241  136.7118  156.9608 C.ar    1  UNL1        0.0855
     15 C         142.2335  137.3453  155.6325 C.ar    1  UNL1        0.0398
     16 C         142.4934  136.5847  154.3660 C.ar    1  UNL1        0.1000
     17 N         143.0438  135.1908  154.4276 N.ar    1  UNL1       -0.2480
     18 C         140.1039  141.5910  163.4432 C.ar    1  UNL1        0.0881
     19 C         140.3182  142.9571  162.8619 C.ar    1  UNL1        0.0178
     20 C         139.2176  143.9751  162.9132 C.ar    1  UNL1        0.0688
     21 C         137.9029  143.6269  163.5457 C.ar    1  UNL1        0.0134
     22 C         137.6885  142.2608  164.1270 C.ar    1  UNL1        0.0377
     23 C         138.7891  141.2429  164.0757 C.ar    1  UNL1        0.1427
     24 C         139.4320  145.3412  162.3319 C.1     1  UNL1        0.1004
     25 N         139.6462  146.7073  161.7506 N.1     1  UNL1       -0.1908
     26 O         138.5748  139.8768  164.6569 O.3     1  UNL1       -0.4790
     27 C         138.6528  139.6725  166.1409 C.3     1  UNL1        0.1661
     28 C         139.5784  140.5159  166.9666 C.3     1  UNL1        0.0472
     29 C         137.8050  138.6247  166.7993 C.3     1  UNL1        0.0472
@<TRIPOS>BOND
     1    11    12    1
     2    12    13   ar
     3    13    14   ar
     4    14     1    1
     5     1     2   ar
     6     2     3   ar
     7     3     4   ar
     8     4     5   ar
     9     4     6    1
    10     6     7    1
    11     7     8   am
    12     8     9    2
    13     8    18    1
    14    18    19   ar
    15    19    20   ar
    16    20    24    1
    17    24    25    3
    18    20    21   ar
    19    21    22   ar
    20    22    23   ar
    21    23    26    1
    22    26    27    1
    23    27    28    1
    24    27    29    1
    25     7    10    1
    26    14    15   ar
    27    15    16   ar
    28    16    17   ar
    29    17    12   ar
    30     5     1   ar
    31    23    18   ar
    32    10     3    1
@<TRIPOS>MOLECULE
*****
 29 32 0 0 0
SMALL
GASTEIGER

@<TRIPOS>ATOM
      1 N         143.1867  141.4613  159.4945 N.ar    1  UNL1       -0.2286
      2 C         141.9955  142.3680  159.5888 C.ar    1  UNL1        0.0990
      3 C         141.4972  142.3329  161.0032 C.ar    1  UNL1        0.0338
      4 C         142.3804  141.4045  161.7830 C.ar    1  UNL1        0.0981
      5 N         143.4246  140.8658  160.8505 N.ar    1  UNL1       -0.1680
      6 C         141.8821  141.3695  163.1974 C.3     1  UNL1        0.1414
      7 N         140.6909  142.2763  163.2918 N.am    1  UNL1       -0.2660
      8 C         139.8800  142.5410  164.5255 C.2     1  UNL1        0.2525
      9 O         138.7096  143.4775  164.4671 O.2     1  UNL1       -0.2698
     10 C         140.4530  142.8717  161.9357 C.3     1  UNL1        0.1236
     11 C         147.1955  142.6396  156.4056 C.3     1  UNL1        0.0521
     12 C         146.0021  141.7856  156.7162 C.ar    1  UNL1        0.0609
     13 C         145.1911  142.0504  157.9500 C.ar    1  UNL1        0.0339
     14 C         143.9977  141.1964  158.2607 C.ar    1  UNL1        0.0855
     15 C         143.6152  140.0777  157.3376 C.ar    1  UNL1        0.0398
     16 C         144.4262  139.8129  156.1038 C.ar    1  UNL1        0.1000
     17 N         145.6196  140.6669  155.7931 N.ar    1  UNL1       -0.2480
     18 C         140.2393  141.8695  165.8177 C.ar    1  UNL1        0.0881
     19 C         141.3791  142.3904  166.6421 C.ar    1  UNL1        0.0178
     20 C         141.7385  141.7188  167.9343 C.ar    1  UNL1        0.0688
     21 C         140.9582  140.5263  168.4022 C.ar    1  UNL1        0.0134
     22 C         139.8184  140.0053  167.5778 C.ar    1  UNL1        0.0377
     23 C         139.4590  140.6769  166.2856 C.ar    1  UNL1        0.1427
     24 C         142.8782  142.2399  168.7586 C.1     1  UNL1        0.1004
     25 N         144.0179  142.7609  169.5830 N.1     1  UNL1       -0.1908
     26 O         138.3193  140.1559  165.4612 O.3     1  UNL1       -0.4790
     27 C         138.5679  139.1137  164.4114 C.3     1  UNL1        0.1661
     28 C         139.0161  137.7390  164.8106 C.3     1  UNL1        0.0472
     29 C         138.3683  139.4462  162.9624 C.3     1  UNL1        0.0472
@<TRIPOS>BOND
     1    11    12    1
     2    12    13   ar
     3    13    14   ar
     4    14     1    1
     5     1     2   ar
     6     2     3   ar
     7     3     4   ar
     8     4     5   ar
     9     4     6    1
    10     6     7    1
    11     7     8   am
    12     8     9    2
    13     8    18    1
    14    18    19   ar
    15    19    20   ar
    16    20    24    1
    17    24    25    3
    18    20    21   ar
    19    21    22   ar
    20    22    23   ar
    21    23    26    1
    22    26    27    1
    23    27    28    1
    24    27    29    1
    25     7    10    1
    26    14    15   ar
    27    15    16   ar
    28    16    17   ar
    29    17    12   ar
    30     5     1   ar
    31    23    18   ar
    32    10     3    1
@<TRIPOS>MOLECULE
*****
 29 32 0 0 0
SMALL
GASTEIGER

@<TRIPOS>ATOM
      1 N         141.0768  137.9027  157.8984 N.ar    1  UNL1       -0.2286
      2 C         139.6453  138.3454  157.9684 C.ar    1  UNL1        0.0990
      3 C         139.4683  139.1446  159.2253 C.ar    1  UNL1        0.0338
      4 C         140.7904  139.1959  159.9321 C.ar    1  UNL1        0.0981
      5 N         141.7845  138.4284  159.1120 N.ar    1  UNL1       -0.1680
      6 C         140.6134  139.9952  161.1890 C.3     1  UNL1        0.1414
      7 N         139.1818  140.4379  161.2591 N.am    1  UNL1       -0.2660
      8 C         138.5661  141.2616  162.3510 C.2     1  UNL1        0.2525
      9 O         137.1133  141.6290  162.2849 O.2     1  UNL1       -0.2698
     10 C         138.4742  139.9122  160.0454 C.3     1  UNL1        0.1236
     11 C         140.7445  135.6538  153.2259 C.3     1  UNL1        0.0521
     12 C         141.5264  135.9545  154.4701 C.ar    1  UNL1        0.0609
     13 C         140.9107  136.7782  155.5621 C.ar    1  UNL1        0.0339
     14 C         141.6926  137.0790  156.8064 C.ar    1  UNL1        0.0855
     15 C         143.0902  136.5560  156.9587 C.ar    1  UNL1        0.0398
     16 C         143.7059  135.7323  155.8667 C.ar    1  UNL1        0.1000
     17 N         142.9240  135.4315  154.6224 N.ar    1  UNL1       -0.2480
     18 C         139.4032  141.7179  163.5090 C.ar    1  UNL1        0.0881
     19 C         140.5049  142.7125  163.2922 C.ar    1  UNL1        0.0178
     20 C         141.3420  143.1688  164.4503 C.ar    1  UNL1        0.0688
     21 C         141.0774  142.6306  165.8251 C.ar    1  UNL1        0.0134
     22 C         139.9757  141.6359  166.0420 C.ar    1  UNL1        0.0377
     23 C         139.1386  141.1796  164.8839 C.ar    1  UNL1        0.1427
     24 C         142.4436  144.1635  164.2334 C.1     1  UNL1        0.1004
     25 N         143.5454  145.1580  164.0165 N.1     1  UNL1       -0.1908
     26 O         138.0369  140.1850  165.1007 O.3     1  UNL1       -0.4790
     27 C         138.3428  138.8470  165.7059 C.3     1  UNL1        0.1661
     28 C         139.3013  137.9167  165.0235 C.3     1  UNL1        0.0472
     29 C         137.6902  138.4394  166.9935 C.3     1  UNL1        0.0472
@<TRIPOS>BOND
     1    11    12    1
     2    12    13   ar
     3    13    14   ar
     4    14     1    1
     5     1     2   ar
     6     2     3   ar
     7     3     4   ar
     8     4     5   ar
     9     4     6    1
    10     6     7    1
    11     7     8   am
    12     8     9    2
    13     8    18    1
    14    18    19   ar
    15    19    20   ar
    16    20    24    1
    17    24    25    3
    18    20    21   ar
    19    21    22   ar
    20    22    23   ar
    21    23    26    1
    22    26    27    1
    23    27    28    1
    24    27    29    1
    25     7    10    1
    26    14    15   ar
    27    15    16   ar
    28    16    17   ar
    29    17    12   ar
    30     5     1   ar
    31    23    18   ar
    32    10     3    1
@<TRIPOS>MOLECULE
*****
 29 32 0 0 0
SMALL
GASTEIGER

@<TRIPOS>ATOM
      1 N         141.7432  139.0663  158.6348 N.ar    1  UNL1       -0.2286
      2 C         141.0833  140.4133  158.6458 C.ar    1  UNL1        0.0990
      3 C         140.7118  140.7358  160.0629 C.ar    1  UNL1        0.0338
      4 C         141.1421  139.5882  160.9276 C.ar    1  UNL1        0.0981
      5 N         141.7795  138.5563  160.0450 N.ar    1  UNL1       -0.1680
      6 C         140.7706  139.9107  162.3446 C.3     1  UNL1        0.1414
      7 N         140.1107  141.2578  162.3557 N.am    1  UNL1       -0.2660
      8 C         139.5803  141.9698  163.5646 C.2     1  UNL1        0.2525
      9 O         138.9425  143.3198  163.4202 O.2     1  UNL1       -0.2698
     10 C         140.0744  141.7677  160.9454 C.3     1  UNL1        0.1236
     11 C         143.7339  134.7984  156.4388 C.3     1  UNL1        0.0521
     12 C         143.2690  136.2202  156.3278 C.ar    1  UNL1        0.0609
     13 C         142.7385  136.9324  157.5368 C.ar    1  UNL1        0.0339
     14 C         142.2736  138.3542  157.4259 C.ar    1  UNL1        0.0855
     15 C         142.3391  139.0639  156.1060 C.ar    1  UNL1        0.0398
     16 C         142.8695  138.3517  154.8971 C.ar    1  UNL1        0.1000
     17 N         143.3345  136.9299  155.0080 N.ar    1  UNL1       -0.2480
     18 C         139.6877  141.3320  164.9180 C.ar    1  UNL1        0.0881
     19 C         138.6846  140.3008  165.3428 C.ar    1  UNL1        0.0178
     20 C         138.7920  139.6629  166.6962 C.ar    1  UNL1        0.0688
     21 C         139.9023  140.0562  167.6247 C.ar    1  UNL1        0.0134
     22 C         140.9055  141.0875  167.2000 C.ar    1  UNL1        0.0377
     23 C         140.7981  141.7253  165.8466 C.ar    1  UNL1        0.1427
     24 C         137.7888  138.6317  167.1209 C.1     1  UNL1        0.1004
     25 N         136.7858  137.6005  167.5457 N.1     1  UNL1       -0.1908
     26 O         141.8012  142.7565  165.4218 O.3     1  UNL1       -0.4790
     27 C         143.2236  142.3571  165.1626 C.3     1  UNL1        0.1661
     28 C         143.5333  140.9906  164.6271 C.3     1  UNL1        0.0472
     29 C         144.3364  143.3242  165.4391 C.3     1  UNL1        0.0472
@<TRIPOS>BOND
     1    11    12    1
     2    12    13   ar
     3    13    14   ar
     4    14     1    1
     5     1     2   ar
     6     2     3   ar
     7     3     4   ar
     8     4     5   ar
     9     4     6    1
    10     6     7    1
    11     7     8   am
    12     8     9    2
    13     8    18    1
    14    18    19   ar
    15    19    20   ar
    16    20    24    1
    17    24    25    3
    18    20    21   ar
    19    21    22   ar
    20    22    23   ar
    21    23    26    1
    22    26    27    1
    23    27    28    1
    24    27    29    1
    25     7    10    1
    26    14    15   ar
    27    15    16   ar
    28    16    17   ar
    29    17    12   ar
    30     5     1   ar
    31    23    18   ar
    32    10     3    1
@<TRIPOS>MOLECULE
*****
 29 32 0 0 0
SMALL
GASTEIGER

@<TRIPOS>ATOM
      1 N         142.0293  138.4256  159.0398 N.ar    1  UNL1       -0.2286
      2 C         140.5912  138.2616  159.4334 C.ar    1  UNL1        0.0990
      3 C         140.4338  138.7693  160.8361 C.ar    1  UNL1        0.0338
      4 C         141.7746  139.2471  161.3093 C.ar    1  UNL1        0.0981
      5 N         142.7607  139.0347  160.1991 N.ar    1  UNL1       -0.1680
      6 C         141.6172  139.7548  162.7120 C.3     1  UNL1        0.1414
      7 N         140.1791  139.5908  163.1057 N.am    1  UNL1       -0.2660
      8 C         139.5779  139.9694  164.4267 C.2     1  UNL1        0.2525
      9 O         138.1161  139.7449  164.6775 O.2     1  UNL1       -0.2698
     10 C         139.4477  138.9817  161.9463 C.3     1  UNL1        0.1236
     11 C         143.7402  134.7830  155.7528 C.3     1  UNL1        0.0521
     12 C         143.4860  136.2257  156.0752 C.ar    1  UNL1        0.0609
     13 C         142.8848  136.6044  157.3962 C.ar    1  UNL1        0.0339
     14 C         142.6305  138.0471  157.7187 C.ar    1  UNL1        0.0855
     15 C         142.9774  139.1112  156.7200 C.ar    1  UNL1        0.0398
     16 C         143.5786  138.7325  155.3989 C.ar    1  UNL1        0.1000
     17 N         143.8329  137.2898  155.0765 N.ar    1  UNL1       -0.2480
     18 C         140.4385  140.5724  165.4971 C.ar    1  UNL1        0.0881
     19 C         140.9810  139.7099  166.5978 C.ar    1  UNL1        0.0178
     20 C         141.8416  140.3130  167.6683 C.ar    1  UNL1        0.0688
     21 C         142.1596  141.7785  167.6379 C.ar    1  UNL1        0.0134
     22 C         141.6171  142.6411  166.5371 C.ar    1  UNL1        0.0377
     23 C         140.7565  142.0381  165.4667 C.ar    1  UNL1        0.1427
     24 C         142.3841  139.4504  168.7690 C.1     1  UNL1        0.1004
     25 N         142.9267  138.5879  169.8697 N.1     1  UNL1       -0.1908
     26 O         140.2140  142.9006  164.3660 O.3     1  UNL1       -0.4790
     27 C         138.8964  143.5964  164.5386 C.3     1  UNL1        0.1661
     28 C         137.6827  143.0946  163.8139 C.3     1  UNL1        0.0472
     29 C         138.7925  144.7939  165.4358 C.3     1  UNL1        0.0472
@<TRIPOS>BOND
     1    11    12    1
     2    12    13   ar
     3    13    14   ar
     4    14     1    1
     5     1     2   ar
     6     2     3   ar
     7     3     4   ar
     8     4     5   ar
     9     4     6    1
    10     6     7    1
    11     7     8   am
    12     8     9    2
    13     8    18    1
    14    18    19   ar
    15    19    20   ar
    16    20    24    1
    17    24    25    3
    18    20    21   ar
    19    21    22   ar
    20    22    23   ar
    21    23    26    1
    22    26    27    1
    23    27    28    1
    24    27    29    1
    25     7    10    1
    26    14    15   ar
    27    15    16   ar
    28    16    17   ar
    29    17    12   ar
    30     5     1   ar
    31    23    18   ar
    32    10     3    1
