@<TRIPOS>MOLECULE
*****
 27 30 0 0 0
SMALL
GASTEIGER

@<TRIPOS>ATOM
      1 N         140.1274  144.6956  158.4197 N.3     1  UNL1       -0.2711
      2 C         140.5054  144.7283  159.8710 C.3     1  UNL1        0.0939
      3 C         139.9958  143.6690  160.8027 C.3     1  UNL1        0.1123
      4 N         139.1081  142.5770  160.2832 N.am    1  UNL1       -0.2612
      5 C         138.5986  141.5177  161.2149 C.2     1  UNL1        0.3072
      6 O         137.7110  140.4258  160.6955 O.2     1  UNL1       -0.2523
      7 N         138.9765  141.5504  162.6661 N.am    1  UNL1       -0.2640
      8 C         139.8513  142.5744  163.3266 C.3     1  UNL1        0.0950
      9 C         139.9615  142.2216  164.7804 C.3     1  UNL1        0.0245
     10 C         139.1548  140.9795  165.0185 C.3     1  UNL1        0.0348
     11 C         138.3130  139.7409  165.1035 C.3     1  UNL1        0.0045
     12 C         138.1447  139.0373  166.4174 C.3     1  UNL1        0.0174
     13 C         138.8181  139.5723  167.6464 C.3     1  UNL1        0.0720
     14 N         139.6598  140.8109  167.5614 N.3     1  UNL1       -0.2737
     15 C         139.8282  141.5145  166.2474 C.3     1  UNL1        0.0737
     16 C         138.5460  140.5647  163.7118 C.3     1  UNL1        0.0962
     17 C         138.7302  142.5444  158.8320 C.3     1  UNL1        0.1123
     18 C         139.2398  143.6037  157.9002 C.3     1  UNL1        0.0939
     19 C         140.3332  141.3459  168.7903 C.3     1  UNL1        0.0625
     20 C         140.5023  140.4685  169.9950 C.3     1  UNL1        0.0481
     21 C         141.1757  141.0034  171.2240 C.3     1  UNL1        0.1435
     22 O         141.6800  142.4159  171.2482 O.3     1  UNL1       -0.3537
     23 C         141.5109  143.2934  170.0435 C.3     1  UNL1        0.1435
     24 C         140.8375  142.7584  168.8145 C.3     1  UNL1        0.0481
     25 C         139.6701  146.6158  156.7304 C.3     1  UNL1        0.0173
     26 C         140.6371  145.7550  157.4880 C.3     1  UNL1        0.0577
     27 C         142.1137  145.9534  157.3138 C.3     1  UNL1        0.0173
@<TRIPOS>BOND
     1    25    26    1
     2    26    27    1
     3    26     1    1
     4     1     2    1
     5     2     3    1
     6     3     4    1
     7     4     5   am
     8     5     6    2
     9     5     7   am
    10     7     8    1
    11     8     9    1
    12     9    10    1
    13    10    11    1
    14    11    12    1
    15    12    13    1
    16    13    14    1
    17    14    19    1
    18    19    20    1
    19    20    21    1
    20    21    22    1
    21    22    23    1
    22    23    24    1
    23    14    15    1
    24    10    16    1
    25     4    17    1
    26    17    18    1
    27    18     1    1
    28    16     7    1
    29    15    10    1
    30    24    19    1
@<TRIPOS>MOLECULE
*****
 27 30 0 0 0
SMALL
GASTEIGER

@<TRIPOS>ATOM
      1 N         143.4436  140.3171  158.3083 N.3     1  UNL1       -0.2711
      2 C         143.5100  140.7937  159.7290 C.3     1  UNL1        0.0939
      3 C         142.4920  140.3246  160.7258 C.3     1  UNL1        0.1123
      4 N         141.4076  139.3788  160.3019 N.am    1  UNL1       -0.2612
      5 C         140.3897  138.9097  161.2987 C.2     1  UNL1        0.3072
      6 O         139.3053  137.9639  160.8748 O.2     1  UNL1       -0.2523
      7 N         140.4561  139.3863  162.7194 N.am    1  UNL1       -0.2640
      8 C         141.4771  140.3274  163.2869 C.3     1  UNL1        0.0950
      9 C         141.1652  140.5283  164.7402 C.3     1  UNL1        0.0245
     10 C         139.9513  139.7113  165.0711 C.3     1  UNL1        0.0348
     11 C         138.7373  138.8491  165.2516 C.3     1  UNL1        0.0045
     12 C         138.0776  138.7546  166.5953 C.3     1  UNL1        0.0174
     13 C         138.6319  139.5223  167.7587 C.3     1  UNL1        0.0720
     14 N         139.8460  140.3845  167.5782 N.3     1  UNL1       -0.2737
     15 C         140.5057  140.4790  166.2344 C.3     1  UNL1        0.0737
     16 C         139.5131  139.0056  163.8221 C.3     1  UNL1        0.0962
     17 C         141.3412  138.9021  158.8812 C.3     1  UNL1        0.1123
     18 C         142.3592  139.3713  157.8844 C.3     1  UNL1        0.0939
     19 C         140.4003  141.1522  168.7415 C.3     1  UNL1        0.0625
     20 C         140.9494  140.4202  169.9301 C.3     1  UNL1        0.0481
     21 C         141.5037  141.1879  171.0934 C.3     1  UNL1        0.1435
     22 O         141.5090  142.6876  171.0682 O.3     1  UNL1       -0.3537
     23 C         140.9599  143.4197  169.8797 C.3     1  UNL1        0.1435
     24 C         140.4056  142.6520  168.7164 C.3     1  UNL1        0.0481
     25 C         144.7319  139.9767  156.0779 C.3     1  UNL1        0.0173
     26 C         144.4615  140.7862  157.3114 C.3     1  UNL1        0.0577
     27 C         145.2092  142.0650  157.5481 C.3     1  UNL1        0.0173
@<TRIPOS>BOND
     1    25    26    1
     2    26    27    1
     3    26     1    1
     4     1     2    1
     5     2     3    1
     6     3     4    1
     7     4     5   am
     8     5     6    2
     9     5     7   am
    10     7     8    1
    11     8     9    1
    12     9    10    1
    13    10    11    1
    14    11    12    1
    15    12    13    1
    16    13    14    1
    17    14    19    1
    18    19    20    1
    19    20    21    1
    20    21    22    1
    21    22    23    1
    22    23    24    1
    23    14    15    1
    24    10    16    1
    25     4    17    1
    26    17    18    1
    27    18     1    1
    28    16     7    1
    29    15    10    1
    30    24    19    1
@<TRIPOS>MOLECULE
*****
 27 30 0 0 0
SMALL
GASTEIGER

@<TRIPOS>ATOM
      1 N         142.7452  143.4865  158.0463 N.3     1  UNL1       -0.2711
      2 C         142.3445  143.7356  159.4701 C.3     1  UNL1        0.0939
      3 C         142.6281  142.7031  160.5207 C.3     1  UNL1        0.1123
      4 N         143.3124  141.4215  160.1473 N.am    1  UNL1       -0.2612
      5 C         143.5959  140.3891  161.1978 C.2     1  UNL1        0.3072
      6 O         144.2802  139.1076  160.8246 O.2     1  UNL1       -0.2523
      7 N         143.1952  140.6382  162.6217 N.am    1  UNL1       -0.2640
      8 C         142.5075  141.8655  163.1423 C.3     1  UNL1        0.0950
      9 C         142.2991  141.6895  164.6173 C.3     1  UNL1        0.0245
     10 C         142.8579  140.3535  165.0083 C.3     1  UNL1        0.0348
     11 C         143.4555  138.9988  165.2483 C.3     1  UNL1        0.0045
     12 C         143.4598  138.4151  166.6301 C.3     1  UNL1        0.0174
     13 C         142.8664  139.1860  167.7718 C.3     1  UNL1        0.0720
     14 N         142.2688  140.5407  167.5318 N.3     1  UNL1       -0.2737
     15 C         142.2645  141.1244  166.1501 C.3     1  UNL1        0.0737
     16 C         143.4117  139.7037  163.7750 C.3     1  UNL1        0.0962
     17 C         143.7131  141.1724  158.7235 C.3     1  UNL1        0.1123
     18 C         143.4296  142.2049  157.6729 C.3     1  UNL1        0.0939
     19 C         141.6754  141.3117  168.6735 C.3     1  UNL1        0.0625
     20 C         141.0310  142.6432  168.4249 C.3     1  UNL1        0.0481
     21 C         140.4376  143.4141  169.5666 C.3     1  UNL1        0.1435
     22 O         140.4886  142.8536  170.9569 O.3     1  UNL1       -0.3537
     23 C         141.1330  141.5221  171.2056 C.3     1  UNL1        0.1435
     24 C         141.7264  140.7511  170.0639 C.3     1  UNL1        0.0481
     25 C         142.0675  145.9093  157.3976 C.3     1  UNL1        0.0173
     26 C         142.4617  144.5189  156.9957 C.3     1  UNL1        0.0577
     27 C         142.5723  144.1610  155.5432 C.3     1  UNL1        0.0173
@<TRIPOS>BOND
     1    25    26    1
     2    26    27    1
     3    26     1    1
     4     1     2    1
     5     2     3    1
     6     3     4    1
     7     4     5   am
     8     5     6    2
     9     5     7   am
    10     7     8    1
    11     8     9    1
    12     9    10    1
    13    10    11    1
    14    11    12    1
    15    12    13    1
    16    13    14    1
    17    14    19    1
    18    19    20    1
    19    20    21    1
    20    21    22    1
    21    22    23    1
    22    23    24    1
    23    14    15    1
    24    10    16    1
    25     4    17    1
    26    17    18    1
    27    18     1    1
    28    16     7    1
    29    15    10    1
    30    24    19    1
@<TRIPOS>MOLECULE
*****
 27 30 0 0 0
SMALL
GASTEIGER

@<TRIPOS>ATOM
      1 N         138.3370  141.0037  158.0956 N.3     1  UNL1       -0.2711
      2 C         138.5071  141.6181  159.4533 C.3     1  UNL1        0.0939
      3 C         139.3348  140.9224  160.4930 C.3     1  UNL1        0.1123
      4 N         139.9925  139.6123  160.1749 N.am    1  UNL1       -0.2612
      5 C         140.8201  138.9166  161.2146 C.2     1  UNL1        0.3072
      6 O         141.4777  137.6065  160.8965 O.2     1  UNL1       -0.2523
      7 N         140.9902  139.5311  162.5723 N.am    1  UNL1       -0.2640
      8 C         140.3964  140.8291  163.0334 C.3     1  UNL1        0.0950
      9 C         140.8232  141.0556  164.4534 C.3     1  UNL1        0.0245
     10 C         141.6808  139.8976  164.8701 C.3     1  UNL1        0.0348
     11 C         142.5158  138.6817  165.1425 C.3     1  UNL1        0.0045
     12 C         143.1575  138.4981  166.4858 C.3     1  UNL1        0.0174
     13 C         142.9641  139.5304  167.5567 C.3     1  UNL1        0.0720
     14 N         142.1291  140.7463  167.2843 N.3     1  UNL1       -0.2737
     15 C         141.4874  140.9299  165.9410 C.3     1  UNL1        0.0737
     16 C         141.7840  138.9553  163.7075 C.3     1  UNL1        0.0962
     17 C         139.8224  138.9978  158.8172 C.3     1  UNL1        0.1123
     18 C         138.9947  139.6935  157.7775 C.3     1  UNL1        0.0939
     19 C         141.9357  141.7787  168.3553 C.3     1  UNL1        0.0625
     20 C         140.6520  142.5510  168.4294 C.3     1  UNL1        0.0481
     21 C         140.4586  143.5834  169.5003 C.3     1  UNL1        0.1435
     22 O         141.5489  143.8434  170.4971 O.3     1  UNL1       -0.3537
     23 C         142.8326  143.0710  170.4229 C.3     1  UNL1        0.1435
     24 C         143.0260  142.0387  169.3520 C.3     1  UNL1        0.0481
     25 C         137.9255  143.0464  156.5438 C.3     1  UNL1        0.0173
     26 C         137.5093  141.6993  157.0559 C.3     1  UNL1        0.0577
     27 C         136.2654  141.0479  156.5282 C.3     1  UNL1        0.0173
@<TRIPOS>BOND
     1    25    26    1
     2    26    27    1
     3    26     1    1
     4     1     2    1
     5     2     3    1
     6     3     4    1
     7     4     5   am
     8     5     6    2
     9     5     7   am
    10     7     8    1
    11     8     9    1
    12     9    10    1
    13    10    11    1
    14    11    12    1
    15    12    13    1
    16    13    14    1
    17    14    19    1
    18    19    20    1
    19    20    21    1
    20    21    22    1
    21    22    23    1
    22    23    24    1
    23    14    15    1
    24    10    16    1
    25     4    17    1
    26    17    18    1
    27    18     1    1
    28    16     7    1
    29    15    10    1
    30    24    19    1
@<TRIPOS>MOLECULE
*****
 27 30 0 0 0
SMALL
GASTEIGER

@<TRIPOS>ATOM
      1 N         138.4863  142.8013  157.4440 N.3     1  UNL1       -0.2711
      2 C         138.2179  142.5644  158.9007 C.3     1  UNL1        0.0939
      3 C         139.3336  142.6774  159.8969 C.3     1  UNL1        0.1123
      4 N         140.7177  143.0274  159.4365 N.am    1  UNL1       -0.2612
      5 C         141.8333  143.1403  160.4327 C.2     1  UNL1        0.3072
      6 O         143.2173  143.4903  159.9723 O.2     1  UNL1       -0.2523
      7 N         141.5649  142.9034  161.8893 N.am    1  UNL1       -0.2640
      8 C         140.2396  142.5478  162.4953 C.3     1  UNL1        0.0950
      9 C         140.4303  142.4050  163.9762 C.3     1  UNL1        0.0245
     10 C         141.8736  142.6723  164.2857 C.3     1  UNL1        0.0348
     11 C         143.3369  142.9629  164.4411 C.3     1  UNL1        0.0045
     12 C         143.9681  142.9283  165.8013 C.3     1  UNL1        0.0174
     13 C         143.1359  142.6031  167.0062 C.3     1  UNL1        0.0720
     14 N         141.6726  142.3125  166.8508 N.3     1  UNL1       -0.2737
     15 C         141.0414  142.3471  165.4905 C.3     1  UNL1        0.0737
     16 C         142.5748  142.9803  162.9959 C.3     1  UNL1        0.0962
     17 C         140.9861  143.2643  157.9799 C.3     1  UNL1        0.1123
     18 C         139.8704  143.1513  156.9836 C.3     1  UNL1        0.0939
     19 C         140.8404  141.9873  168.0557 C.3     1  UNL1        0.0625
     20 C         140.6849  142.9965  169.1544 C.3     1  UNL1        0.0481
     21 C         139.8527  142.6713  170.3593 C.3     1  UNL1        0.1435
     22 O         139.1761  141.3368  170.4654 O.3     1  UNL1       -0.3537
     23 C         139.3316  140.3276  169.3667 C.3     1  UNL1        0.1435
     24 C         140.1638  140.6528  168.1619 C.3     1  UNL1        0.0481
     25 C         137.0921  143.8189  155.5022 C.3     1  UNL1        0.0173
     26 C         137.3706  142.6883  156.4478 C.3     1  UNL1        0.0577
     27 C         136.5334  141.4447  156.3971 C.3     1  UNL1        0.0173
@<TRIPOS>BOND
     1    25    26    1
     2    26    27    1
     3    26     1    1
     4     1     2    1
     5     2     3    1
     6     3     4    1
     7     4     5   am
     8     5     6    2
     9     5     7   am
    10     7     8    1
    11     8     9    1
    12     9    10    1
    13    10    11    1
    14    11    12    1
    15    12    13    1
    16    13    14    1
    17    14    19    1
    18    19    20    1
    19    20    21    1
    20    21    22    1
    21    22    23    1
    22    23    24    1
    23    14    15    1
    24    10    16    1
    25     4    17    1
    26    17    18    1
    27    18     1    1
    28    16     7    1
    29    15    10    1
    30    24    19    1
@<TRIPOS>MOLECULE
*****
 27 30 0 0 0
SMALL
GASTEIGER

@<TRIPOS>ATOM
      1 N         140.5828  143.3650  163.5784 N.3     1  UNL1       -0.2711
      2 C         140.5633  141.9785  163.0062 C.3     1  UNL1        0.0939
      3 C         141.2668  141.6909  161.7130 C.3     1  UNL1        0.1123
      4 N         141.9899  142.7897  160.9920 N.am    1  UNL1       -0.2612
      5 C         142.6934  142.5021  159.6989 C.2     1  UNL1        0.3072
      6 O         143.4165  143.6008  158.9779 O.2     1  UNL1       -0.2523
      7 N         142.6739  141.1156  159.1267 N.am    1  UNL1       -0.2640
      8 C         141.9961  139.9218  159.7312 C.3     1  UNL1        0.0950
      9 C         142.2320  138.7479  158.8277 C.3     1  UNL1        0.0245
     10 C         143.0557  139.2162  157.6647 C.3     1  UNL1        0.0348
     11 C         143.8769  139.8269  156.5681 C.3     1  UNL1        0.0045
     12 C         144.3452  138.9805  155.4217 C.3     1  UNL1        0.0174
     13 C         143.9924  137.5234  155.3720 C.3     1  UNL1        0.0720
     14 N         143.1712  136.9128  156.4686 N.3     1  UNL1       -0.2737
     15 C         142.7029  137.7592  157.6150 C.3     1  UNL1        0.0737
     16 C         143.3288  140.6795  157.8496 C.3     1  UNL1        0.0962
     17 C         142.0094  144.1762  161.5642 C.3     1  UNL1        0.1123
     18 C         141.3059  144.4638  162.8573 C.3     1  UNL1        0.0939
     19 C         142.8184  135.4557  156.4189 C.3     1  UNL1        0.0625
     20 C         141.7536  134.9735  155.4790 C.3     1  UNL1        0.0481
     21 C         141.4007  133.5164  155.4292 C.3     1  UNL1        0.1435
     22 O         142.1127  132.5416  156.3195 O.3     1  UNL1       -0.3537
     23 C         143.1776  133.0237  157.2595 C.3     1  UNL1        0.1435
     24 C         143.5304  134.4808  157.3092 C.3     1  UNL1        0.0481
     25 C         140.1976  142.8445  166.0945 C.3     1  UNL1        0.0173
     26 C         139.8792  143.6526  164.8715 C.3     1  UNL1        0.0577
     27 C         138.8573  144.7485  164.9418 C.3     1  UNL1        0.0173
@<TRIPOS>BOND
     1    25    26    1
     2    26    27    1
     3    26     1    1
     4     1     2    1
     5     2     3    1
     6     3     4    1
     7     4     5   am
     8     5     6    2
     9     5     7   am
    10     7     8    1
    11     8     9    1
    12     9    10    1
    13    10    11    1
    14    11    12    1
    15    12    13    1
    16    13    14    1
    17    14    19    1
    18    19    20    1
    19    20    21    1
    20    21    22    1
    21    22    23    1
    22    23    24    1
    23    14    15    1
    24    10    16    1
    25     4    17    1
    26    17    18    1
    27    18     1    1
    28    16     7    1
    29    15    10    1
    30    24    19    1
@<TRIPOS>MOLECULE
*****
 27 30 0 0 0
SMALL
GASTEIGER

@<TRIPOS>ATOM
      1 N         137.8461  142.6251  156.9494 N.3     1  UNL1       -0.2711
      2 C         138.1726  142.0073  158.2767 C.3     1  UNL1        0.0939
      3 C         139.2341  142.6142  159.1457 C.3     1  UNL1        0.1123
      4 N         139.9690  143.8389  158.6873 N.am    1  UNL1       -0.2612
      5 C         141.0304  144.4458  159.5561 C.2     1  UNL1        0.3072
      6 O         141.7653  145.6704  159.0978 O.2     1  UNL1       -0.2523
      7 N         141.3569  143.8280  160.8834 N.am    1  UNL1       -0.2640
      8 C         140.7098  142.6093  161.4719 C.3     1  UNL1        0.0950
      9 C         141.3409  142.3485  162.8074 C.3     1  UNL1        0.0245
     10 C         142.3781  143.4060  163.0445 C.3     1  UNL1        0.0348
     11 C         143.3753  144.5222  163.1415 C.3     1  UNL1        0.0045
     12 C         144.2491  144.6440  164.3546 C.3     1  UNL1        0.0174
     13 C         144.1256  143.6495  165.4707 C.3     1  UNL1        0.0720
     14 N         143.1283  142.5333  165.3738 N.3     1  UNL1       -0.2737
     15 C         142.2545  142.4115  164.1606 C.3     1  UNL1        0.0737
     16 C         142.3880  144.3203  161.8554 C.3     1  UNL1        0.0962
     17 C         139.6425  144.4567  157.3600 C.3     1  UNL1        0.1123
     18 C         138.5810  143.8498  156.4910 C.3     1  UNL1        0.0939
     19 C         143.0047  141.5388  166.4899 C.3     1  UNL1        0.0625
     20 C         142.8928  140.0752  166.1814 C.3     1  UNL1        0.0481
     21 C         142.7693  139.0807  167.2975 C.3     1  UNL1        0.1435
     22 O         142.7577  139.5498  168.7222 O.3     1  UNL1       -0.3537
     23 C         142.8696  141.0135  169.0307 C.3     1  UNL1        0.1435
     24 C         142.9931  142.0079  167.9146 C.3     1  UNL1        0.0481
     25 C         136.3187  142.7399  154.8509 C.3     1  UNL1        0.0173
     26 C         136.7847  142.0182  156.0805 C.3     1  UNL1        0.0577
     27 C         136.1891  140.6895  156.4413 C.3     1  UNL1        0.0173
@<TRIPOS>BOND
     1    25    26    1
     2    26    27    1
     3    26     1    1
     4     1     2    1
     5     2     3    1
     6     3     4    1
     7     4     5   am
     8     5     6    2
     9     5     7   am
    10     7     8    1
    11     8     9    1
    12     9    10    1
    13    10    11    1
    14    11    12    1
    15    12    13    1
    16    13    14    1
    17    14    19    1
    18    19    20    1
    19    20    21    1
    20    21    22    1
    21    22    23    1
    22    23    24    1
    23    14    15    1
    24    10    16    1
    25     4    17    1
    26    17    18    1
    27    18     1    1
    28    16     7    1
    29    15    10    1
    30    24    19    1
@<TRIPOS>MOLECULE
*****
 27 30 0 0 0
SMALL
GASTEIGER

@<TRIPOS>ATOM
      1 N         142.3471  136.8526  157.1522 N.3     1  UNL1       -0.2711
      2 C         142.6947  137.3665  158.5178 C.3     1  UNL1        0.0939
      3 C         141.7267  138.2404  159.2591 C.3     1  UNL1        0.1123
      4 N         140.4112  138.6004  158.6346 N.am    1  UNL1       -0.2612
      5 C         139.4433  139.4742  159.3759 C.2     1  UNL1        0.3072
      6 O         138.1278  139.8342  158.7514 O.2     1  UNL1       -0.2523
      7 N         139.7908  139.9881  160.7415 N.am    1  UNL1       -0.2640
      8 C         141.0617  139.7138  161.4898 C.3     1  UNL1        0.0950
      9 C         140.9848  140.4227  162.8095 C.3     1  UNL1        0.0245
     10 C         139.6664  141.1351  162.8769 C.3     1  UNL1        0.0348
     11 C         138.3190  141.7898  162.8012 C.3     1  UNL1        0.0045
     12 C         137.8253  142.6242  163.9457 C.3     1  UNL1        0.0174
     13 C         138.6790  142.8039  165.1659 C.3     1  UNL1        0.0720
     14 N         140.0264  142.1492  165.2416 N.3     1  UNL1       -0.2737
     15 C         140.5202  141.3148  164.0971 C.3     1  UNL1        0.0737
     16 C         138.9285  140.8665  161.5989 C.3     1  UNL1        0.0962
     17 C         140.0636  138.0865  157.2689 C.3     1  UNL1        0.1123
     18 C         141.0316  137.2126  156.5277 C.3     1  UNL1        0.0939
     19 C         140.8802  142.3289  166.4618 C.3     1  UNL1        0.0625
     20 C         142.3593  142.0923  166.3838 C.3     1  UNL1        0.0481
     21 C         143.2130  142.2720  167.6040 C.3     1  UNL1        0.1435
     22 O         142.5876  142.6883  168.9022 O.3     1  UNL1       -0.3537
     23 C         141.1084  142.9250  168.9803 C.3     1  UNL1        0.1435
     24 C         140.2547  142.7452  167.7601 C.3     1  UNL1        0.0481
     25 C         144.2279  136.5759  155.3812 C.3     1  UNL1        0.0173
     26 C         143.3151  135.9788  156.4109 C.3     1  UNL1        0.0577
     27 C         143.3702  134.5077  156.6994 C.3     1  UNL1        0.0173
@<TRIPOS>BOND
     1    25    26    1
     2    26    27    1
     3    26     1    1
     4     1     2    1
     5     2     3    1
     6     3     4    1
     7     4     5   am
     8     5     6    2
     9     5     7   am
    10     7     8    1
    11     8     9    1
    12     9    10    1
    13    10    11    1
    14    11    12    1
    15    12    13    1
    16    13    14    1
    17    14    19    1
    18    19    20    1
    19    20    21    1
    20    21    22    1
    21    22    23    1
    22    23    24    1
    23    14    15    1
    24    10    16    1
    25     4    17    1
    26    17    18    1
    27    18     1    1
    28    16     7    1
    29    15    10    1
    30    24    19    1
@<TRIPOS>MOLECULE
*****
 27 30 0 0 0
SMALL
GASTEIGER

@<TRIPOS>ATOM
      1 N         142.9691  141.1410  166.3725 N.3     1  UNL1       -0.2711
      2 C         142.8036  139.9713  165.4481 C.3     1  UNL1        0.0939
      3 C         142.9738  140.1543  163.9690 C.3     1  UNL1        0.1123
      4 N         143.3094  141.5071  163.4144 N.am    1  UNL1       -0.2612
      5 C         143.4796  141.6901  161.9354 C.2     1  UNL1        0.3072
      6 O         143.8152  143.0428  161.3808 O.2     1  UNL1       -0.2523
      7 N         143.3141  140.5205  161.0110 N.am    1  UNL1       -0.2640
      8 C         142.9806  139.1156  161.4176 C.3     1  UNL1        0.0950
      9 C         142.9135  138.2772  160.1756 C.3     1  UNL1        0.0245
     10 C         143.2055  139.1638  159.0014 C.3     1  UNL1        0.0348
     11 C         143.5132  140.1679  157.9303 C.3     1  UNL1        0.0045
     12 C         143.5509  139.7427  156.4924 C.3     1  UNL1        0.0174
     13 C         143.2810  138.3136  156.1254 C.3     1  UNL1        0.0720
     14 N         142.9733  137.3095  157.1965 N.3     1  UNL1       -0.2737
     15 C         142.9355  137.7347  158.6345 C.3     1  UNL1        0.0737
     16 C         143.4531  140.5502  159.5177 C.3     1  UNL1        0.0962
     17 C         143.4749  142.6767  164.3388 C.3     1  UNL1        0.1123
     18 C         143.3047  142.4937  165.8178 C.3     1  UNL1        0.0939
     19 C         142.7034  135.8804  156.8296 C.3     1  UNL1        0.0625
     20 C         141.7162  135.5575  155.7473 C.3     1  UNL1        0.0481
     21 C         141.4463  134.1283  155.3804 C.3     1  UNL1        0.1435
     22 O         142.1635  133.0220  156.0958 O.3     1  UNL1       -0.3537
     23 C         143.1506  133.3449  157.1780 C.3     1  UNL1        0.1435
     24 C         143.4206  134.7741  157.5449 C.3     1  UNL1        0.0481
     25 C         142.9703  142.1263  168.7765 C.3     1  UNL1        0.0173
     26 C         142.7990  140.9580  167.8515 C.3     1  UNL1        0.0577
     27 C         142.4575  139.6065  168.4057 C.3     1  UNL1        0.0173
@<TRIPOS>BOND
     1    25    26    1
     2    26    27    1
     3    26     1    1
     4     1     2    1
     5     2     3    1
     6     3     4    1
     7     4     5   am
     8     5     6    2
     9     5     7   am
    10     7     8    1
    11     8     9    1
    12     9    10    1
    13    10    11    1
    14    11    12    1
    15    12    13    1
    16    13    14    1
    17    14    19    1
    18    19    20    1
    19    20    21    1
    20    21    22    1
    21    22    23    1
    22    23    24    1
    23    14    15    1
    24    10    16    1
    25     4    17    1
    26    17    18    1
    27    18     1    1
    28    16     7    1
    29    15    10    1
    30    24    19    1
