@<TRIPOS>MOLECULE
*****
 39 43 0 0 0
SMALL
GASTEIGER

@<TRIPOS>ATOM
      1 C         141.1910  142.1295  165.3654 C.cat   1  UNL1        0.3755
      2 N         141.5934  140.7630  164.8955 N.2     1  UNL1       -0.0826
      3 C         142.0836  139.7449  165.8820 C.3     1  UNL1        0.2640
      4 C         142.1715  140.0933  167.3384 C.ar    1  UNL1        0.0615
      5 C         142.6617  139.0752  168.3248 C.ar    1  UNL1        0.0031
      6 C         142.7496  139.4237  169.7811 C.ar    1  UNL1        0.0002
      7 C         142.3472  140.7901  170.2510 C.ar    1  UNL1        0.0071
      8 C         141.8569  141.8082  169.2645 C.ar    1  UNL1        0.0816
      9 C         141.7691  141.4598  167.8082 C.ar    1  UNL1        0.1133
     10 N         141.2788  142.4779  166.8217 N.pl3   1  UNL1       -0.2049
     11 H         141.0147  143.3748  167.1301 H       1  UNL1        0.2512
     12 C         138.0705  142.8764  164.7703 C.3     1  UNL1        0.0469
     13 C         139.2664  143.4909  164.1053 C.3     1  UNL1        0.1718
     14 C         139.2379  144.5566  163.0501 C.2     1  UNL1        0.1005
     15 N         138.3339  145.4274  162.2289 N.2     1  UNL1       -0.1534
     16 N         139.1920  146.2809  161.3427 N.2     1  UNL1       -0.1512
     17 C         140.6263  145.9376  161.6162 C.2     1  UNL1        0.1044
     18 C         140.6547  144.8719  162.6714 C.3     1  UNL1        0.1213
     19 C         141.5588  144.0011  163.4927 C.3     1  UNL1        0.1793
     20 N         140.7007  143.1476  164.3789 N.pl3   1  UNL1       -0.1954
     21 C         141.4545  143.1747  169.7344 C.2     1  UNL1        0.2453
     22 N         142.3616  143.9537  170.6401 N.am    1  UNL1       -0.3252
     23 O         140.1451  143.7623  169.2985 O.2     1  UNL1       -0.2703
     24 H         143.2211  143.5681  170.9262 H       1  UNL1        0.1453
     25 H         142.0975  144.8506  170.9485 H       1  UNL1        0.1453
     26 N         142.4860  138.3784  165.4121 N.3     1  UNL1       -0.2571
     27 H         142.9561  137.9244  166.1953 H       1  UNL1        0.1270
     28 C         141.4450  137.4189  164.9167 C.3     1  UNL1        0.1006
     29 C         140.5559  137.8026  163.7711 C.ar    1  UNL1        0.0251
     30 C         141.0910  137.7906  162.3698 C.ar    1  UNL1        0.1374
     31 F         142.5152  137.3951  162.1142 F       1  UNL1       -0.2045
     32 C         140.2020  138.1743  161.2242 C.ar    1  UNL1        0.0293
     33 C         138.7778  138.5698  161.4799 C.ar    1  UNL1        0.0022
     34 C         138.2427  138.5817  162.8812 C.ar    1  UNL1        0.0037
     35 C         139.1318  138.1981  164.0268 C.ar    1  UNL1        0.0709
     36 C         138.5966  138.2100  165.4281 C.3     1  UNL1        0.4184
     37 F         138.0615  138.2219  166.8293 F       1  UNL1       -0.1659
     38 F         138.4197  136.7215  165.3732 F       1  UNL1       -0.1659
     39 F         138.7736  139.6985  165.4829 F       1  UNL1       -0.1659
@<TRIPOS>BOND
     1    13    12    1
     2    13    14    1
     3    14    15    2
     4    15    16    1
     5    16    17    2
     6    17    18    1
     7    18    19    1
     8    19    20    1
     9    20     1    1
    10     1     2    2
    11     2     3    1
    12     3    26    1
    13    26    28    1
    14    28    29    1
    15    29    30   ar
    16    30    31    1
    17    30    32   ar
    18    32    33   ar
    19    33    34   ar
    20    34    35   ar
    21    35    36    1
    22    36    37    1
    23    36    38    1
    24    36    39    1
    25     3     4    1
    26     4     5   ar
    27     5     6   ar
    28     6     7   ar
    29     7     8   ar
    30     8    21    1
    31    21    22   am
    32    21    23    2
    33     8     9   ar
    34     9    10    1
    35    20    13    1
    36    10     1    1
    37    18    14    1
    38    35    29   ar
    39     9     4   ar
    40    26    27    1
    41    22    24    1
    42    22    25    1
    43    10    11    1
@<TRIPOS>MOLECULE
*****
 39 43 0 0 0
SMALL
GASTEIGER

@<TRIPOS>ATOM
      1 C         141.0799  142.4060  166.1147 C.cat   1  UNL1        0.3755
      2 N         141.9608  141.2311  165.8088 N.2     1  UNL1       -0.0826
      3 C         142.4721  140.3668  166.9230 C.3     1  UNL1        0.2640
      4 C         142.1025  140.6775  168.3433 C.ar    1  UNL1        0.0615
      5 C         142.6138  139.8132  169.4575 C.ar    1  UNL1        0.0031
      6 C         142.2442  140.1238  170.8776 C.ar    1  UNL1        0.0002
      7 C         141.3633  141.2988  171.1835 C.ar    1  UNL1        0.0071
      8 C         140.8520  142.1630  170.0693 C.ar    1  UNL1        0.0816
      9 C         141.2216  141.8524  168.6492 C.ar    1  UNL1        0.1133
     10 N         140.7103  142.7167  167.5348 N.pl3   1  UNL1       -0.2049
     11 H         140.1322  143.4878  167.7356 H       1  UNL1        0.2512
     12 C         138.1330  142.2037  164.7277 C.3     1  UNL1        0.0469
     13 C         139.2141  143.1773  164.3628 C.3     1  UNL1        0.1718
     14 C         139.1305  144.2289  163.2964 C.2     1  UNL1        0.1005
     15 N         138.2417  144.8213  162.2433 N.2     1  UNL1       -0.1534
     16 N         138.9953  145.9303  161.5709 N.2     1  UNL1       -0.1512
     17 C         140.3498  146.0234  162.2084 C.2     1  UNL1        0.1044
     18 C         140.4334  144.9718  163.2748 C.3     1  UNL1        0.1213
     19 C         141.3223  144.3794  164.3280 C.3     1  UNL1        0.1793
     20 N         140.5687  143.2703  165.0004 N.pl3   1  UNL1       -0.1954
     21 C         139.9711  143.3380  170.3752 C.2     1  UNL1        0.2453
     22 N         138.9495  143.2446  171.4695 N.am    1  UNL1       -0.3252
     23 O         140.1118  144.6063  169.5868 O.2     1  UNL1       -0.2703
     24 H         138.8571  142.4122  171.9869 H       1  UNL1        0.1453
     25 H         138.3713  144.0158  171.6702 H       1  UNL1        0.1453
     26 N         143.3530  139.1919  166.6171 N.3     1  UNL1       -0.2571
     27 H         143.4430  138.6583  167.4818 H       1  UNL1        0.1270
     28 C         142.9594  138.2181  165.5463 C.3     1  UNL1        0.1006
     29 C         142.9542  138.6458  164.1086 C.ar    1  UNL1        0.0251
     30 C         144.1930  139.2280  163.4949 C.ar    1  UNL1        0.1374
     31 F         145.4368  139.3825  164.3189 F       1  UNL1       -0.2045
     32 C         144.1878  139.6558  162.0572 C.ar    1  UNL1        0.0293
     33 C         142.9439  139.5013  161.2332 C.ar    1  UNL1        0.0022
     34 C         141.7053  138.9191  161.8469 C.ar    1  UNL1        0.0037
     35 C         141.7104  138.4914  163.2846 C.ar    1  UNL1        0.0709
     36 C         140.4717  137.9091  163.8983 C.3     1  UNL1        0.4184
     37 F         139.2330  137.3269  164.5120 F       1  UNL1       -0.1659
     38 F         139.9758  139.2905  164.2080 F       1  UNL1       -0.1659
     39 F         140.9676  136.5278  163.5887 F       1  UNL1       -0.1659
@<TRIPOS>BOND
     1    13    12    1
     2    13    14    1
     3    14    15    2
     4    15    16    1
     5    16    17    2
     6    17    18    1
     7    18    19    1
     8    19    20    1
     9    20     1    1
    10     1     2    2
    11     2     3    1
    12     3    26    1
    13    26    28    1
    14    28    29    1
    15    29    30   ar
    16    30    31    1
    17    30    32   ar
    18    32    33   ar
    19    33    34   ar
    20    34    35   ar
    21    35    36    1
    22    36    37    1
    23    36    38    1
    24    36    39    1
    25     3     4    1
    26     4     5   ar
    27     5     6   ar
    28     6     7   ar
    29     7     8   ar
    30     8    21    1
    31    21    22   am
    32    21    23    2
    33     8     9   ar
    34     9    10    1
    35    20    13    1
    36    10     1    1
    37    18    14    1
    38    35    29   ar
    39     9     4   ar
    40    26    27    1
    41    22    24    1
    42    22    25    1
    43    10    11    1
@<TRIPOS>MOLECULE
*****
 39 43 0 0 0
SMALL
GASTEIGER

@<TRIPOS>ATOM
      1 C         142.1874  140.3737  166.3939 C.cat   1  UNL1        0.3755
      2 N         143.5606  140.7544  165.9255 N.2     1  UNL1       -0.0826
      3 C         144.0701  140.2507  164.6076 C.3     1  UNL1        0.2640
      4 C         143.2062  139.3663  163.7581 C.ar    1  UNL1        0.0615
      5 C         143.7156  138.8626  162.4402 C.ar    1  UNL1        0.0031
      6 C         142.8518  137.9782  161.5908 C.ar    1  UNL1        0.0002
      7 C         141.4786  137.5975  162.0591 C.ar    1  UNL1        0.0071
      8 C         140.9692  138.1012  163.3770 C.ar    1  UNL1        0.0816
      9 C         141.8330  138.9856  164.2264 C.ar    1  UNL1        0.1133
     10 N         141.3236  139.4893  165.5444 N.pl3   1  UNL1       -0.2049
     11 H         140.4224  139.2395  165.8518 H       1  UNL1        0.2512
     12 C         142.6017  138.9278  169.2899 C.3     1  UNL1        0.0469
     13 C         141.8685  140.2128  169.0429 C.3     1  UNL1        0.1718
     14 C         141.1969  141.0589  170.0837 C.2     1  UNL1        0.1005
     15 N         140.8995  141.1710  171.5496 N.2     1  UNL1       -0.1534
     16 N         140.1103  142.4278  171.7677 N.2     1  UNL1       -0.1512
     17 C         139.9199  143.0925  170.4366 C.2     1  UNL1        0.1044
     18 C         140.5914  142.2464  169.3958 C.3     1  UNL1        0.1213
     19 C         140.8888  142.1343  167.9298 C.3     1  UNL1        0.1793
     20 N         141.6780  140.8774  167.7118 N.pl3   1  UNL1       -0.1954
     21 C         139.5960  137.7205  163.8453 C.2     1  UNL1        0.2453
     22 N         138.4924  137.5207  162.8493 N.am    1  UNL1       -0.3252
     23 O         139.3264  137.5396  165.3097 O.2     1  UNL1       -0.2703
     24 H         138.6694  137.6394  161.8881 H       1  UNL1        0.1453
     25 H         137.5912  137.2708  163.1567 H       1  UNL1        0.1453
     26 N         145.4433  140.6314  164.1393 N.3     1  UNL1       -0.2571
     27 H         145.8225  139.8211  163.6495 H       1  UNL1        0.1270
     28 C         145.6256  141.8109  163.2307 C.3     1  UNL1        0.1006
     29 C         144.5603  142.8634  163.1450 C.ar    1  UNL1        0.0251
     30 C         144.3199  143.7835  164.3051 C.ar    1  UNL1        0.1374
     31 F         145.1448  143.6510  165.5508 F       1  UNL1       -0.2045
     32 C         143.2545  144.8359  164.2193 C.ar    1  UNL1        0.0293
     33 C         142.4296  144.9683  162.9735 C.ar    1  UNL1        0.0022
     34 C         142.6700  144.0483  161.8135 C.ar    1  UNL1        0.0037
     35 C         143.7354  142.9958  161.8992 C.ar    1  UNL1        0.0709
     36 C         143.9758  142.0758  160.7391 C.3     1  UNL1        0.4184
     37 F         144.2162  141.1557  159.5791 F       1  UNL1       -0.1659
     38 F         145.2580  142.7928  160.4361 F       1  UNL1       -0.1659
     39 F         142.6937  141.3587  161.0422 F       1  UNL1       -0.1659
@<TRIPOS>BOND
     1    13    12    1
     2    13    14    1
     3    14    15    2
     4    15    16    1
     5    16    17    2
     6    17    18    1
     7    18    19    1
     8    19    20    1
     9    20     1    1
    10     1     2    2
    11     2     3    1
    12     3    26    1
    13    26    28    1
    14    28    29    1
    15    29    30   ar
    16    30    31    1
    17    30    32   ar
    18    32    33   ar
    19    33    34   ar
    20    34    35   ar
    21    35    36    1
    22    36    37    1
    23    36    38    1
    24    36    39    1
    25     3     4    1
    26     4     5   ar
    27     5     6   ar
    28     6     7   ar
    29     7     8   ar
    30     8    21    1
    31    21    22   am
    32    21    23    2
    33     8     9   ar
    34     9    10    1
    35    20    13    1
    36    10     1    1
    37    18    14    1
    38    35    29   ar
    39     9     4   ar
    40    26    27    1
    41    22    24    1
    42    22    25    1
    43    10    11    1
@<TRIPOS>MOLECULE
*****
 39 43 0 0 0
SMALL
GASTEIGER

@<TRIPOS>ATOM
      1 C         141.5940  142.1220  165.6865 C.cat   1  UNL1        0.3755
      2 N         141.1757  143.4826  165.2136 N.2     1  UNL1       -0.0826
      3 C         141.7128  144.0259  163.9228 C.3     1  UNL1        0.2640
      4 C         142.6683  143.2086  163.1048 C.ar    1  UNL1        0.0615
      5 C         143.2054  143.7519  161.8139 C.ar    1  UNL1        0.0031
      6 C         144.1608  142.9346  160.9960 C.ar    1  UNL1        0.0002
      7 C         144.5791  141.5739  161.4689 C.ar    1  UNL1        0.0071
      8 C         144.0420  141.0306  162.7597 C.ar    1  UNL1        0.0816
      9 C         143.0866  141.8479  163.5776 C.ar    1  UNL1        0.1133
     10 N         142.5494  141.3046  164.8685 N.pl3   1  UNL1       -0.2049
     11 H         142.8239  140.4116  165.1789 H       1  UNL1        0.2512
     12 C         138.9278  140.2713  166.0271 C.3     1  UNL1        0.0469
     13 C         139.8313  140.7280  167.1339 C.3     1  UNL1        0.1718
     14 C         139.6680  140.4142  168.5916 C.2     1  UNL1        0.1005
     15 N         138.8096  139.6946  169.5893 N.2     1  UNL1       -0.1534
     16 N         139.4037  139.9066  170.9502 N.2     1  UNL1       -0.1512
     17 C         140.6292  140.7573  170.7937 C.2     1  UNL1        0.1044
     18 C         140.7925  141.0710  169.3360 C.3     1  UNL1        0.1213
     19 C         141.6509  141.7907  168.3383 C.3     1  UNL1        0.1793
     20 N         141.0568  141.5786  166.9773 N.pl3   1  UNL1       -0.1954
     21 C         144.4603  139.6699  163.2326 C.2     1  UNL1        0.2453
     22 N         144.3847  138.4963  162.3015 N.am    1  UNL1       -0.3252
     23 O         144.9542  139.4828  164.6365 O.2     1  UNL1       -0.2703
     24 H         144.0606  138.6191  161.3800 H       1  UNL1        0.1453
     25 H         144.6593  137.6032  162.6119 H       1  UNL1        0.1453
     26 N         141.2945  145.3866  163.4499 N.3     1  UNL1       -0.2571
     27 H         142.0357  145.7259  162.8367 H       1  UNL1        0.1270
     28 C         140.0039  145.5578  162.7050 C.3     1  UNL1        0.1006
     29 C         139.6194  144.5784  161.6359 C.ar    1  UNL1        0.0251
     30 C         140.2081  144.6989  160.2615 C.ar    1  UNL1        0.1374
     31 F         141.1813  145.7987  159.9562 F       1  UNL1       -0.2045
     32 C         139.8236  143.7195  159.1924 C.ar    1  UNL1        0.0293
     33 C         138.8503  142.6196  159.4978 C.ar    1  UNL1        0.0022
     34 C         138.2617  142.4992  160.8721 C.ar    1  UNL1        0.0037
     35 C         138.6462  143.4786  161.9412 C.ar    1  UNL1        0.0709
     36 C         138.0575  143.3581  163.3157 C.3     1  UNL1        0.4184
     37 F         137.4688  143.2377  164.6900 F       1  UNL1       -0.1659
     38 F         138.9365  142.1737  163.5884 F       1  UNL1       -0.1659
     39 F         137.1785  144.5426  163.0429 F       1  UNL1       -0.1659
@<TRIPOS>BOND
     1    13    12    1
     2    13    14    1
     3    14    15    2
     4    15    16    1
     5    16    17    2
     6    17    18    1
     7    18    19    1
     8    19    20    1
     9    20     1    1
    10     1     2    2
    11     2     3    1
    12     3    26    1
    13    26    28    1
    14    28    29    1
    15    29    30   ar
    16    30    31    1
    17    30    32   ar
    18    32    33   ar
    19    33    34   ar
    20    34    35   ar
    21    35    36    1
    22    36    37    1
    23    36    38    1
    24    36    39    1
    25     3     4    1
    26     4     5   ar
    27     5     6   ar
    28     6     7   ar
    29     7     8   ar
    30     8    21    1
    31    21    22   am
    32    21    23    2
    33     8     9   ar
    34     9    10    1
    35    20    13    1
    36    10     1    1
    37    18    14    1
    38    35    29   ar
    39     9     4   ar
    40    26    27    1
    41    22    24    1
    42    22    25    1
    43    10    11    1
@<TRIPOS>MOLECULE
*****
 39 43 0 0 0
SMALL
GASTEIGER

@<TRIPOS>ATOM
      1 C         142.1694  140.9844  166.4518 C.cat   1  UNL1        0.3755
      2 N         142.0526  139.5690  165.9691 N.2     1  UNL1       -0.0826
      3 C         142.5674  139.1949  164.6109 C.3     1  UNL1        0.2640
      4 C         143.1991  140.2362  163.7352 C.ar    1  UNL1        0.0615
      5 C         143.7140  139.8620  162.3769 C.ar    1  UNL1        0.0031
      6 C         144.3456  140.9033  161.5013 C.ar    1  UNL1        0.0002
      7 C         144.4624  142.3187  161.9840 C.ar    1  UNL1        0.0071
      8 C         143.9476  142.6929  163.3423 C.ar    1  UNL1        0.0816
      9 C         143.3160  141.6516  164.2179 C.ar    1  UNL1        0.1133
     10 N         142.8011  142.0257  165.5762 N.pl3   1  UNL1       -0.2049
     11 H         142.8778  142.9547  165.8930 H       1  UNL1        0.2512
     12 C         142.6372  139.3045  169.2101 C.3     1  UNL1        0.0469
     13 C         141.8696  140.5863  169.0780 C.3     1  UNL1        0.1718
     14 C         141.1822  141.3211  170.1905 C.2     1  UNL1        0.1005
     15 N         140.8902  141.2980  171.6616 N.2     1  UNL1       -0.1534
     16 N         140.0699  142.5100  171.9905 N.2     1  UNL1       -0.1512
     17 C         139.8549  143.2822  170.7227 C.2     1  UNL1        0.1044
     18 C         140.5423  142.5475  169.6102 C.3     1  UNL1        0.1213
     19 C         140.8343  142.5706  168.1390 C.3     1  UNL1        0.1793
     20 N         141.6546  141.3585  167.8101 N.pl3   1  UNL1       -0.1954
     21 C         144.0644  144.1083  163.8249 C.2     1  UNL1        0.2453
     22 N         143.7477  145.2450  162.8990 N.am    1  UNL1       -0.3252
     23 O         144.4980  144.3869  165.2336 O.2     1  UNL1       -0.2703
     24 H         143.4631  145.0621  161.9744 H       1  UNL1        0.1453
     25 H         143.8243  146.1740  163.2158 H       1  UNL1        0.1453
     26 N         142.4506  137.7795  164.1282 N.3     1  UNL1       -0.2571
     27 H         142.8295  137.1848  164.8653 H       1  UNL1        0.1270
     28 C         141.1071  137.2187  163.7671 C.3     1  UNL1        0.1006
     29 C         140.1633  138.0194  162.9197 C.ar    1  UNL1        0.0251
     30 C         140.4329  138.1911  161.4541 C.ar    1  UNL1        0.1374
     31 F         141.6463  137.5621  160.8360 F       1  UNL1       -0.2045
     32 C         139.4891  138.9918  160.6067 C.ar    1  UNL1        0.0293
     33 C         138.2757  139.6207  161.2248 C.ar    1  UNL1        0.0022
     34 C         138.0061  139.4490  162.6904 C.ar    1  UNL1        0.0037
     35 C         138.9499  138.6483  163.5378 C.ar    1  UNL1        0.0709
     36 C         138.6803  138.4766  165.0034 C.3     1  UNL1        0.4184
     37 F         138.4107  138.3049  166.4689 F       1  UNL1       -0.1659
     38 F         138.3515  137.0312  164.7736 F       1  UNL1       -0.1659
     39 F         139.0091  139.9219  165.2332 F       1  UNL1       -0.1659
@<TRIPOS>BOND
     1    13    12    1
     2    13    14    1
     3    14    15    2
     4    15    16    1
     5    16    17    2
     6    17    18    1
     7    18    19    1
     8    19    20    1
     9    20     1    1
    10     1     2    2
    11     2     3    1
    12     3    26    1
    13    26    28    1
    14    28    29    1
    15    29    30   ar
    16    30    31    1
    17    30    32   ar
    18    32    33   ar
    19    33    34   ar
    20    34    35   ar
    21    35    36    1
    22    36    37    1
    23    36    38    1
    24    36    39    1
    25     3     4    1
    26     4     5   ar
    27     5     6   ar
    28     6     7   ar
    29     7     8   ar
    30     8    21    1
    31    21    22   am
    32    21    23    2
    33     8     9   ar
    34     9    10    1
    35    20    13    1
    36    10     1    1
    37    18    14    1
    38    35    29   ar
    39     9     4   ar
    40    26    27    1
    41    22    24    1
    42    22    25    1
    43    10    11    1
@<TRIPOS>MOLECULE
*****
 39 43 0 0 0
SMALL
GASTEIGER

@<TRIPOS>ATOM
      1 C         142.7786  141.9663  161.8253 C.cat   1  UNL1        0.3755
      2 N         143.2116  141.2180  163.0511 N.2     1  UNL1       -0.0826
      3 C         142.5698  141.5115  164.3747 C.3     1  UNL1        0.2640
      4 C         141.4950  142.5534  164.4725 C.ar    1  UNL1        0.0615
      5 C         140.8532  142.8469  165.7961 C.ar    1  UNL1        0.0031
      6 C         139.7784  143.8887  165.8938 C.ar    1  UNL1        0.0002
      7 C         139.3455  144.6369  164.6680 C.ar    1  UNL1        0.0071
      8 C         139.9873  144.3434  163.3444 C.ar    1  UNL1        0.0816
      9 C         141.0620  143.3016  163.2467 C.ar    1  UNL1        0.1133
     10 N         141.7039  143.0080  161.9230 N.pl3   1  UNL1       -0.2049
     11 H         141.4197  143.4991  161.1185 H       1  UNL1        0.2512
     12 C         142.5102  139.1860  160.1379 C.3     1  UNL1        0.0469
     13 C         143.2971  140.3947  159.7261 C.3     1  UNL1        0.1718
     14 C         144.0987  140.5378  158.4664 C.2     1  UNL1        0.1005
     15 N         144.5180  139.8364  157.2085 N.2     1  UNL1       -0.1534
     16 N         145.3959  140.7693  156.4281 N.2     1  UNL1       -0.1512
     17 C         145.5193  142.0473  157.2037 C.2     1  UNL1        0.1044
     18 C         144.7176  141.9042  158.4634 C.3     1  UNL1        0.1213
     19 C         144.2984  142.6057  159.7214 C.3     1  UNL1        0.1793
     20 N         143.4205  141.6727  160.5017 N.pl3   1  UNL1       -0.1954
     21 C         139.5543  145.0916  162.1186 C.2     1  UNL1        0.2453
     22 N         139.6931  146.5841  162.0628 N.am    1  UNL1       -0.3252
     23 O         138.9826  144.3474  160.9485 O.2     1  UNL1       -0.2703
     24 H         140.0683  147.0726  162.8308 H       1  UNL1        0.1453
     25 H         139.4089  147.0752  161.2583 H       1  UNL1        0.1453
     26 N         143.0027  140.7633  165.6005 N.3     1  UNL1       -0.2571
     27 H         142.7398  141.3355  166.4030 H       1  UNL1        0.1270
     28 C         142.4763  139.3832  165.8618 C.3     1  UNL1        0.1006
     29 C         141.0050  139.1662  166.0571 C.ar    1  UNL1        0.0251
     30 C         140.3133  139.7485  167.2540 C.ar    1  UNL1        0.1374
     31 F         141.0930  140.5478  168.2556 F       1  UNL1       -0.2045
     32 C         138.8420  139.5315  167.4493 C.ar    1  UNL1        0.0293
     33 C         138.0624  138.7321  166.4476 C.ar    1  UNL1        0.0022
     34 C         138.7541  138.1499  165.2507 C.ar    1  UNL1        0.0037
     35 C         140.2254  138.3669  165.0555 C.ar    1  UNL1        0.0709
     36 C         140.9170  137.7846  163.8585 C.3     1  UNL1        0.4184
     37 F         141.6087  137.2024  162.6616 F       1  UNL1       -0.1659
     38 F         141.1949  136.5286  164.6300 F       1  UNL1       -0.1659
     39 F         140.6392  139.0406  163.0870 F       1  UNL1       -0.1659
@<TRIPOS>BOND
     1    13    12    1
     2    13    14    1
     3    14    15    2
     4    15    16    1
     5    16    17    2
     6    17    18    1
     7    18    19    1
     8    19    20    1
     9    20     1    1
    10     1     2    2
    11     2     3    1
    12     3    26    1
    13    26    28    1
    14    28    29    1
    15    29    30   ar
    16    30    31    1
    17    30    32   ar
    18    32    33   ar
    19    33    34   ar
    20    34    35   ar
    21    35    36    1
    22    36    37    1
    23    36    38    1
    24    36    39    1
    25     3     4    1
    26     4     5   ar
    27     5     6   ar
    28     6     7   ar
    29     7     8   ar
    30     8    21    1
    31    21    22   am
    32    21    23    2
    33     8     9   ar
    34     9    10    1
    35    20    13    1
    36    10     1    1
    37    18    14    1
    38    35    29   ar
    39     9     4   ar
    40    26    27    1
    41    22    24    1
    42    22    25    1
    43    10    11    1
@<TRIPOS>MOLECULE
*****
 39 43 0 0 0
SMALL
GASTEIGER

@<TRIPOS>ATOM
      1 C         141.8513  142.0254  165.8496 C.cat   1  UNL1        0.3755
      2 N         141.5859  143.4483  165.4560 N.2     1  UNL1       -0.0826
      3 C         142.2270  144.0181  164.2255 C.3     1  UNL1        0.2640
      4 C         143.1336  143.1650  163.3885 C.ar    1  UNL1        0.0615
      5 C         143.7747  143.7349  162.1579 C.ar    1  UNL1        0.0031
      6 C         144.6811  142.8818  161.3210 C.ar    1  UNL1        0.0002
      7 C         144.9465  141.4589  161.7146 C.ar    1  UNL1        0.0071
      8 C         144.3055  140.8891  162.9451 C.ar    1  UNL1        0.0816
      9 C         143.3990  141.7421  163.7820 C.ar    1  UNL1        0.1133
     10 N         142.7578  141.1723  165.0126 N.pl3   1  UNL1       -0.2049
     11 H         142.9320  140.2384  165.2710 H       1  UNL1        0.2512
     12 C         138.9634  140.5116  165.9822 C.3     1  UNL1        0.0469
     13 C         139.8827  140.7598  167.1411 C.3     1  UNL1        0.1718
     14 C         139.6361  140.3557  168.5645 C.2     1  UNL1        0.1005
     15 N         138.6633  139.6759  169.4818 N.2     1  UNL1       -0.1534
     16 N         139.2371  139.7019  170.8675 N.2     1  UNL1       -0.1512
     17 C         140.5646  140.3977  170.8066 C.2     1  UNL1        0.1044
     18 C         140.8112  140.8018  169.3832 C.3     1  UNL1        0.1213
     19 C         141.7841  141.4815  168.4658 C.3     1  UNL1        0.1793
     20 N         141.2102  141.4555  167.0802 N.pl3   1  UNL1       -0.1954
     21 C         144.5708  139.4662  163.3387 C.2     1  UNL1        0.2453
     22 N         144.4137  138.3672  162.3300 N.am    1  UNL1       -0.3252
     23 O         144.9934  139.1422  164.7410 O.2     1  UNL1       -0.2703
     24 H         144.1364  138.5798  161.4096 H       1  UNL1        0.1453
     25 H         144.5879  137.4333  162.5883 H       1  UNL1        0.1453
     26 N         141.9616  145.4410  163.8319 N.3     1  UNL1       -0.2571
     27 H         142.7426  145.7348  163.2453 H       1  UNL1        0.1270
     28 C         140.7064  145.7922  163.0896 C.3     1  UNL1        0.1006
     29 C         139.6144  144.7750  162.9394 C.ar    1  UNL1        0.0251
     30 C         138.6387  144.5516  164.0567 C.ar    1  UNL1        0.1374
     31 F         138.7552  145.3454  165.3241 F       1  UNL1       -0.2045
     32 C         137.5466  143.5343  163.9065 C.ar    1  UNL1        0.0293
     33 C         137.4302  142.7405  162.6391 C.ar    1  UNL1        0.0022
     34 C         138.4058  142.9639  161.5219 C.ar    1  UNL1        0.0037
     35 C         139.4979  143.9811  161.6721 C.ar    1  UNL1        0.0709
     36 C         140.4735  144.2046  160.5548 C.3     1  UNL1        0.4184
     37 F         141.4491  144.4280  159.4375 F       1  UNL1       -0.1659
     38 F         141.0872  142.8623  160.8222 F       1  UNL1       -0.1659
     39 F         139.8599  145.5469  160.2873 F       1  UNL1       -0.1659
@<TRIPOS>BOND
     1    13    12    1
     2    13    14    1
     3    14    15    2
     4    15    16    1
     5    16    17    2
     6    17    18    1
     7    18    19    1
     8    19    20    1
     9    20     1    1
    10     1     2    2
    11     2     3    1
    12     3    26    1
    13    26    28    1
    14    28    29    1
    15    29    30   ar
    16    30    31    1
    17    30    32   ar
    18    32    33   ar
    19    33    34   ar
    20    34    35   ar
    21    35    36    1
    22    36    37    1
    23    36    38    1
    24    36    39    1
    25     3     4    1
    26     4     5   ar
    27     5     6   ar
    28     6     7   ar
    29     7     8   ar
    30     8    21    1
    31    21    22   am
    32    21    23    2
    33     8     9   ar
    34     9    10    1
    35    20    13    1
    36    10     1    1
    37    18    14    1
    38    35    29   ar
    39     9     4   ar
    40    26    27    1
    41    22    24    1
    42    22    25    1
    43    10    11    1
@<TRIPOS>MOLECULE
*****
 39 43 0 0 0
SMALL
GASTEIGER

@<TRIPOS>ATOM
      1 C         140.5614  142.1354  162.8681 C.cat   1  UNL1        0.3755
      2 N         140.5240  142.8319  164.1960 N.2     1  UNL1       -0.0826
      3 C         140.0184  142.1081  165.4086 C.3     1  UNL1        0.2640
      4 C         139.5501  140.6877  165.2933 C.ar    1  UNL1        0.0615
      5 C         139.0445  139.9639  166.5059 C.ar    1  UNL1        0.0031
      6 C         138.5762  138.5436  166.3905 C.ar    1  UNL1        0.0002
      7 C         138.6135  137.8471  165.0626 C.ar    1  UNL1        0.0071
      8 C         139.1191  138.5709  163.8500 C.ar    1  UNL1        0.0816
      9 C         139.5874  139.9912  163.9653 C.ar    1  UNL1        0.1133
     10 N         140.0930  140.7151  162.7527 N.pl3   1  UNL1       -0.2049
     11 H         140.1175  140.2579  161.8811 H       1  UNL1        0.2512
     12 C         139.7570  145.1678  161.9700 C.3     1  UNL1        0.0469
     13 C         140.6973  144.2531  161.2426 C.3     1  UNL1        0.1718
     14 C         141.4329  144.5716  159.9748 C.2     1  UNL1        0.1005
     15 N         141.6591  145.6299  158.9361 N.2     1  UNL1       -0.1534
     16 N         142.6233  145.0869  157.9234 N.2     1  UNL1       -0.1512
     17 C         142.9930  143.6930  158.3362 C.2     1  UNL1        0.1044
     18 C         142.2574  143.3745  159.6040 C.3     1  UNL1        0.1213
     19 C         142.0312  142.3162  160.6428 C.3     1  UNL1        0.1793
     20 N         141.0670  142.8592  161.6554 N.pl3   1  UNL1       -0.1954
     21 C         139.1564  137.8744  162.5220 C.2     1  UNL1        0.2453
     22 N         137.8768  137.5374  161.8156 N.am    1  UNL1       -0.3252
     23 O         140.4733  137.5148  161.9005 O.2     1  UNL1       -0.2703
     24 H         137.0124  137.7735  162.2236 H       1  UNL1        0.1453
     25 H         137.9013  137.0803  160.9440 H       1  UNL1        0.1453
     26 N         139.9811  142.8046  166.7366 N.3     1  UNL1       -0.2571
     27 H         139.2107  142.3931  167.2634 H       1  UNL1        0.1270
     28 C         141.1833  142.7750  167.6331 C.3     1  UNL1        0.1006
     29 C         141.5509  141.5115  168.3532 C.ar    1  UNL1        0.0251
     30 C         142.4636  140.5152  167.7016 C.ar    1  UNL1        0.1374
     31 F         143.0086  140.7824  166.3299 F       1  UNL1       -0.2045
     32 C         142.8312  139.2518  168.4217 C.ar    1  UNL1        0.0293
     33 C         142.2861  138.9846  169.7934 C.ar    1  UNL1        0.0022
     34 C         141.3735  139.9809  170.4450 C.ar    1  UNL1        0.0037
     35 C         141.0059  141.2443  169.7248 C.ar    1  UNL1        0.0709
     36 C         140.0932  142.2406  170.3765 C.3     1  UNL1        0.4184
     37 F         139.1806  143.2368  171.0280 F       1  UNL1       -0.1659
     38 F         138.9072  141.4088  169.9872 F       1  UNL1       -0.1659
     39 F         141.2791  143.0724  170.7657 F       1  UNL1       -0.1659
@<TRIPOS>BOND
     1    13    12    1
     2    13    14    1
     3    14    15    2
     4    15    16    1
     5    16    17    2
     6    17    18    1
     7    18    19    1
     8    19    20    1
     9    20     1    1
    10     1     2    2
    11     2     3    1
    12     3    26    1
    13    26    28    1
    14    28    29    1
    15    29    30   ar
    16    30    31    1
    17    30    32   ar
    18    32    33   ar
    19    33    34   ar
    20    34    35   ar
    21    35    36    1
    22    36    37    1
    23    36    38    1
    24    36    39    1
    25     3     4    1
    26     4     5   ar
    27     5     6   ar
    28     6     7   ar
    29     7     8   ar
    30     8    21    1
    31    21    22   am
    32    21    23    2
    33     8     9   ar
    34     9    10    1
    35    20    13    1
    36    10     1    1
    37    18    14    1
    38    35    29   ar
    39     9     4   ar
    40    26    27    1
    41    22    24    1
    42    22    25    1
    43    10    11    1
@<TRIPOS>MOLECULE
*****
 39 43 0 0 0
SMALL
GASTEIGER

@<TRIPOS>ATOM
      1 C         141.7363  142.5864  166.2184 C.cat   1  UNL1        0.3755
      2 N         143.1321  142.4281  165.6924 N.2     1  UNL1       -0.0826
      3 C         143.4775  142.9260  164.3203 C.3     1  UNL1        0.2640
      4 C         142.4271  143.5822  163.4741 C.ar    1  UNL1        0.0615
      5 C         142.7725  144.0801  162.1020 C.ar    1  UNL1        0.0031
      6 C         141.7221  144.7364  161.2558 C.ar    1  UNL1        0.0002
      7 C         140.3263  144.8947  161.7818 C.ar    1  UNL1        0.0071
      8 C         139.9809  144.3968  163.1539 C.ar    1  UNL1        0.0816
      9 C         141.0313  143.7406  164.0001 C.ar    1  UNL1        0.1133
     10 N         140.6859  143.2426  165.3723 N.pl3   1  UNL1       -0.2049
     11 H         139.7698  143.3465  165.7175 H       1  UNL1        0.2512
     12 C         139.5920  140.2287  166.9200 C.3     1  UNL1        0.0469
     13 C         140.4053  141.0047  167.9131 C.3     1  UNL1        0.1718
     14 C         140.3758  140.8334  169.4030 C.2     1  UNL1        0.1005
     15 N         139.7484  140.0577  170.5231 N.2     1  UNL1       -0.1534
     16 N         140.3281  140.5561  171.8137 N.2     1  UNL1       -0.1512
     17 C         141.3137  141.6398  171.4912 C.2     1  UNL1        0.1044
     18 C         141.3432  141.8112  170.0013 C.3     1  UNL1        0.1213
     19 C         141.9706  142.5869  168.8811 C.3     1  UNL1        0.1793
     20 N         141.3909  142.0885  167.5906 N.pl3   1  UNL1       -0.1954
     21 C         138.5851  144.5551  163.6799 C.2     1  UNL1        0.2453
     22 N         137.4133  144.3962  162.7571 N.am    1  UNL1       -0.3252
     23 O         138.3610  144.8724  165.1287 O.2     1  UNL1       -0.2703
     24 H         137.5603  144.1879  161.8062 H       1  UNL1        0.1453
     25 H         136.4972  144.5001  163.1023 H       1  UNL1        0.1453
     26 N         144.8733  142.7676  163.7943 N.3     1  UNL1       -0.2571
     27 H         145.5023  143.1091  164.5210 H       1  UNL1        0.1270
     28 C         145.3734  141.4124  163.3906 C.3     1  UNL1        0.1006
     29 C         144.4921  140.4932  162.5978 C.ar    1  UNL1        0.0251
     30 C         144.2423  140.7630  161.1435 C.ar    1  UNL1        0.1374
     31 F         144.8739  141.9519  160.4820 F       1  UNL1       -0.2045
     32 C         143.3610  139.8439  160.3508 C.ar    1  UNL1        0.0293
     33 C         142.7294  138.6549  161.0123 C.ar    1  UNL1        0.0022
     34 C         142.9792  138.3852  162.4665 C.ar    1  UNL1        0.0037
     35 C         143.8605  139.3043  163.2593 C.ar    1  UNL1        0.0709
     36 C         144.1102  139.0345  164.7136 C.3     1  UNL1        0.4184
     37 F         144.3599  138.7647  166.1678 F       1  UNL1       -0.1659
     38 F         145.5466  138.7273  164.4100 F       1  UNL1       -0.1659
     39 F         142.6738  139.3418  165.0172 F       1  UNL1       -0.1659
@<TRIPOS>BOND
     1    13    12    1
     2    13    14    1
     3    14    15    2
     4    15    16    1
     5    16    17    2
     6    17    18    1
     7    18    19    1
     8    19    20    1
     9    20     1    1
    10     1     2    2
    11     2     3    1
    12     3    26    1
    13    26    28    1
    14    28    29    1
    15    29    30   ar
    16    30    31    1
    17    30    32   ar
    18    32    33   ar
    19    33    34   ar
    20    34    35   ar
    21    35    36    1
    22    36    37    1
    23    36    38    1
    24    36    39    1
    25     3     4    1
    26     4     5   ar
    27     5     6   ar
    28     6     7   ar
    29     7     8   ar
    30     8    21    1
    31    21    22   am
    32    21    23    2
    33     8     9   ar
    34     9    10    1
    35    20    13    1
    36    10     1    1
    37    18    14    1
    38    35    29   ar
    39     9     4   ar
    40    26    27    1
    41    22    24    1
    42    22    25    1
    43    10    11    1
