@<TRIPOS>MOLECULE
*****
 30 33 0 0 0
SMALL
GASTEIGER

@<TRIPOS>ATOM
      1 C         142.6894  142.6831  170.1468 C.ar    1  UNL1        0.1418
      2 C         141.4964  142.3638  170.9982 C.ar    1  UNL1        0.0384
      3 C         140.3962  141.5012  170.4545 C.ar    1  UNL1        0.0246
      4 C         140.4890  140.9579  169.0595 C.ar    1  UNL1        0.1397
      5 C         141.6819  141.2771  168.2081 C.ar    1  UNL1        0.1589
      6 C         142.7821  142.1397  168.7517 C.ar    1  UNL1        0.0751
      7 O         141.7747  140.7338  166.8130 O.3     1  UNL1       -0.4716
      8 C         140.6746  139.8712  166.2694 C.3     1  UNL1        0.2102
      9 C         139.4816  139.5520  167.1208 C.3     1  UNL1        0.1779
     10 C         138.3814  138.6894  166.5772 C.3     1  UNL1        0.0300
     11 S         139.3888  140.0953  168.5159 S.O2    1  UNL1        0.0137
     12 O         138.8488  140.3725  169.8876 O.2     1  UNL1       -0.1685
     13 O         138.1011  139.3290  168.4486 O.2     1  UNL1       -0.1685
     14 C         140.7673  139.3279  164.8743 C.ar    1  UNL1        0.0191
     15 C         140.5928  140.2441  163.6995 C.ar    1  UNL1        0.0023
     16 C         140.6856  139.7007  162.3044 C.ar    1  UNL1        0.0367
     17 C         140.9528  138.2413  162.0842 C.ar    1  UNL1        0.1385
     18 C         141.1273  137.3251  163.2590 C.ar    1  UNL1        0.0367
     19 C         141.0345  137.8684  164.6541 C.ar    1  UNL1        0.0023
     20 O         141.0456  137.6979  160.6892 O.3     1  UNL1       -0.4754
     21 C         142.2833  137.9307  159.8743 C.3     1  UNL1        0.2068
     22 C         143.6056  138.1205  160.5565 C.3     1  UNL1        0.0646
     23 C         144.1477  139.5026  160.7704 C.3     1  UNL1        0.0759
     24 N         144.3433  140.0243  162.1632 N.3     1  UNL1       -0.2726
     25 C         144.6274  141.4483  162.5395 C.3     1  UNL1        0.0721
     26 C         144.7489  141.5177  164.0330 C.3     1  UNL1        0.0188
     27 C         144.5399  140.1365  164.5796 C.3     1  UNL1        0.0188
     28 C         144.2892  139.2136  163.4240 C.3     1  UNL1        0.0721
     29 C         145.2154  143.2661  170.3179 C.3     1  UNL1        0.2525
     30 O         143.7895  143.5457  170.6904 O.3     1  UNL1       -0.4713
@<TRIPOS>BOND
     1    29    30    1
     2    30     1    1
     3     1     2   ar
     4     2     3   ar
     5     3     4   ar
     6     4     5   ar
     7     5     6   ar
     8     5     7    1
     9     7     8    1
    10     8    14    1
    11    14    15   ar
    12    15    16   ar
    13    16    17   ar
    14    17    20    1
    15    20    21    1
    16    21    22    1
    17    22    23    1
    18    23    24    1
    19    24    25    1
    20    25    26    1
    21    26    27    1
    22    27    28    1
    23    17    18   ar
    24    18    19   ar
    25     8     9    1
    26     9    10    1
    27     9    11    1
    28    11    12    2
    29    11    13    2
    30     6     1   ar
    31    19    14   ar
    32    11     4    1
    33    28    24    1
@<TRIPOS>MOLECULE
*****
 30 33 0 0 0
SMALL
GASTEIGER

@<TRIPOS>ATOM
      1 C         142.6418  142.5654  169.9724 C.ar    1  UNL1        0.1418
      2 C         141.9709  141.4286  170.6847 C.ar    1  UNL1        0.0384
      3 C         140.9256  140.6149  169.9809 C.ar    1  UNL1        0.0246
      4 C         140.5512  140.9381  168.5649 C.ar    1  UNL1        0.1397
      5 C         141.2221  142.0750  167.8526 C.ar    1  UNL1        0.1589
      6 C         142.2674  142.8886  168.5564 C.ar    1  UNL1        0.0751
      7 O         140.8476  142.3982  166.4364 O.3     1  UNL1       -0.4716
      8 C         139.8023  141.5846  165.7327 C.3     1  UNL1        0.2102
      9 C         139.1315  140.4476  166.4450 C.3     1  UNL1        0.1779
     10 C         138.0862  139.6340  165.7413 C.3     1  UNL1        0.0300
     11 S         139.5059  140.1244  167.8611 S.O2    1  UNL1        0.0137
     12 O         139.5189  139.4356  169.1935 O.2     1  UNL1       -0.1685
     13 O         138.4651  139.0716  167.6201 O.2     1  UNL1       -0.1685
     14 C         139.4279  141.9078  164.3166 C.ar    1  UNL1        0.0191
     15 C         140.2232  141.3349  163.1811 C.ar    1  UNL1        0.0023
     16 C         139.8488  141.6581  161.7650 C.ar    1  UNL1        0.0367
     17 C         138.6790  142.5542  161.4844 C.ar    1  UNL1        0.1385
     18 C         137.8838  143.1271  162.6198 C.ar    1  UNL1        0.0367
     19 C         138.2582  142.8039  164.0360 C.ar    1  UNL1        0.0023
     20 O         138.3046  142.8774  160.0683 O.3     1  UNL1       -0.4754
     21 C         139.3461  143.3811  159.1134 C.3     1  UNL1        0.2068
     22 C         140.1102  144.6327  159.4289 C.3     1  UNL1        0.0646
     23 C         141.5079  144.5427  159.9659 C.3     1  UNL1        0.0759
     24 N         141.7484  144.6039  161.4453 N.3     1  UNL1       -0.2726
     25 C         140.8608  145.2676  162.4561 C.3     1  UNL1        0.0721
     26 C         141.4824  145.0861  163.8091 C.3     1  UNL1        0.0188
     27 C         142.7542  144.3101  163.6345 C.3     1  UNL1        0.0188
     28 C         142.9186  144.0122  162.1736 C.3     1  UNL1        0.0721
     29 C         145.1301  143.2415  170.2905 C.3     1  UNL1        0.2525
     30 O         143.6871  143.3791  170.6762 O.3     1  UNL1       -0.4713
@<TRIPOS>BOND
     1    29    30    1
     2    30     1    1
     3     1     2   ar
     4     2     3   ar
     5     3     4   ar
     6     4     5   ar
     7     5     6   ar
     8     5     7    1
     9     7     8    1
    10     8    14    1
    11    14    15   ar
    12    15    16   ar
    13    16    17   ar
    14    17    20    1
    15    20    21    1
    16    21    22    1
    17    22    23    1
    18    23    24    1
    19    24    25    1
    20    25    26    1
    21    26    27    1
    22    27    28    1
    23    17    18   ar
    24    18    19   ar
    25     8     9    1
    26     9    10    1
    27     9    11    1
    28    11    12    2
    29    11    13    2
    30     6     1   ar
    31    19    14   ar
    32    11     4    1
    33    28    24    1
@<TRIPOS>MOLECULE
*****
 30 33 0 0 0
SMALL
GASTEIGER

@<TRIPOS>ATOM
      1 C         141.0715  141.7384  170.0062 C.ar    1  UNL1        0.1418
      2 C         139.8167  141.0057  170.3784 C.ar    1  UNL1        0.0384
      3 C         139.1052  140.1694  169.3564 C.ar    1  UNL1        0.0246
      4 C         139.6486  140.0658  167.9622 C.ar    1  UNL1        0.1397
      5 C         140.9034  140.7985  167.5899 C.ar    1  UNL1        0.1589
      6 C         141.6148  141.6348  168.6119 C.ar    1  UNL1        0.0751
      7 O         141.4468  140.6949  166.1956 O.3     1  UNL1       -0.4716
      8 C         140.7354  139.8586  165.1736 C.3     1  UNL1        0.2102
      9 C         139.4805  139.1259  165.5459 C.3     1  UNL1        0.1779
     10 C         138.7690  138.2896  164.5240 C.3     1  UNL1        0.0300
     11 S         138.9371  139.2295  166.9402 S.O2    1  UNL1        0.0137
     12 O         138.0383  139.0171  168.1221 O.2     1  UNL1       -0.1685
     13 O         137.9136  138.3195  166.3287 O.2     1  UNL1       -0.1685
     14 C         141.2787  139.7550  163.7794 C.ar    1  UNL1        0.0191
     15 C         142.2988  138.7063  163.4479 C.ar    1  UNL1        0.0023
     16 C         142.8421  138.6027  162.0537 C.ar    1  UNL1        0.0367
     17 C         142.3655  139.5477  160.9908 C.ar    1  UNL1        0.1385
     18 C         141.3455  140.5964  161.3222 C.ar    1  UNL1        0.0367
     19 C         140.8021  140.7000  162.7165 C.ar    1  UNL1        0.0023
     20 O         142.9088  139.4441  159.5966 O.3     1  UNL1       -0.4754
     21 C         143.9314  140.4302  159.1148 C.3     1  UNL1        0.2068
     22 C         143.8001  141.8813  159.4714 C.3     1  UNL1        0.0646
     23 C         144.7535  142.5026  160.4487 C.3     1  UNL1        0.0759
     24 N         144.5242  142.3464  161.9229 N.3     1  UNL1       -0.2726
     25 C         145.1468  141.3066  162.8067 C.3     1  UNL1        0.0721
     26 C         144.6395  141.5202  164.2021 C.3     1  UNL1        0.0188
     27 C         143.7033  142.6920  164.1806 C.3     1  UNL1        0.0188
     28 C         143.6320  143.2026  162.7719 C.3     1  UNL1        0.0721
     29 C         143.0641  143.2678  170.6700 C.3     1  UNL1        0.2525
     30 O         141.7829  142.5747  171.0282 O.3     1  UNL1       -0.4713
@<TRIPOS>BOND
     1    29    30    1
     2    30     1    1
     3     1     2   ar
     4     2     3   ar
     5     3     4   ar
     6     4     5   ar
     7     5     6   ar
     8     5     7    1
     9     7     8    1
    10     8    14    1
    11    14    15   ar
    12    15    16   ar
    13    16    17   ar
    14    17    20    1
    15    20    21    1
    16    21    22    1
    17    22    23    1
    18    23    24    1
    19    24    25    1
    20    25    26    1
    21    26    27    1
    22    27    28    1
    23    17    18   ar
    24    18    19   ar
    25     8     9    1
    26     9    10    1
    27     9    11    1
    28    11    12    2
    29    11    13    2
    30     6     1   ar
    31    19    14   ar
    32    11     4    1
    33    28    24    1
@<TRIPOS>MOLECULE
*****
 30 33 0 0 0
SMALL
GASTEIGER

@<TRIPOS>ATOM
      1 C         140.8035  142.4483  169.2951 C.ar    1  UNL1        0.1418
      2 C         140.0642  141.2395  169.7873 C.ar    1  UNL1        0.0384
      3 C         139.4486  140.2860  168.8066 C.ar    1  UNL1        0.0246
      4 C         139.5724  140.5411  167.3337 C.ar    1  UNL1        0.1397
      5 C         140.3116  141.7499  166.8415 C.ar    1  UNL1        0.1589
      6 C         140.9272  142.7035  167.8222 C.ar    1  UNL1        0.0751
      7 O         140.4354  142.0051  165.3685 O.3     1  UNL1       -0.4716
      8 C         139.8198  141.0515  164.3878 C.3     1  UNL1        0.2102
      9 C         139.0805  139.8427  164.8801 C.3     1  UNL1        0.1779
     10 C         138.4650  138.8891  163.8994 C.3     1  UNL1        0.0300
     11 S         138.9568  139.5875  166.3530 S.O2    1  UNL1        0.0137
     12 O         138.5730  138.9208  167.6407 O.2     1  UNL1       -0.1685
     13 O         138.2080  138.4024  165.8195 O.2     1  UNL1       -0.1685
     14 C         139.9436  141.3067  162.9149 C.ar    1  UNL1        0.0191
     15 C         141.1465  140.8135  162.1667 C.ar    1  UNL1        0.0023
     16 C         141.2703  141.0687  160.6938 C.ar    1  UNL1        0.0367
     17 C         140.1911  141.8170  159.9690 C.ar    1  UNL1        0.1385
     18 C         138.9882  142.3102  160.7171 C.ar    1  UNL1        0.0367
     19 C         138.8644  142.0550  162.1901 C.ar    1  UNL1        0.0023
     20 O         140.3148  142.0722  158.4960 O.3     1  UNL1       -0.4754
     21 C         140.8677  143.3772  158.0048 C.3     1  UNL1        0.2068
     22 C         141.7732  144.1869  158.8848 C.3     1  UNL1        0.0646
     23 C         141.1941  145.2034  159.8236 C.3     1  UNL1        0.0759
     24 N         141.3156  145.0100  161.3062 N.3     1  UNL1       -0.2726
     25 C         142.4595  144.3514  162.0186 C.3     1  UNL1        0.0721
     26 C         142.1654  144.3757  163.4893 C.3     1  UNL1        0.0188
     27 C         140.8396  145.0493  163.6857 C.3     1  UNL1        0.0188
     28 C         140.3144  145.4413  162.3365 C.3     1  UNL1        0.0721
     29 C         142.8635  143.2600  170.6542 C.3     1  UNL1        0.2525
     30 O         141.4190  143.4019  170.2758 O.3     1  UNL1       -0.4713
@<TRIPOS>BOND
     1    29    30    1
     2    30     1    1
     3     1     2   ar
     4     2     3   ar
     5     3     4   ar
     6     4     5   ar
     7     5     6   ar
     8     5     7    1
     9     7     8    1
    10     8    14    1
    11    14    15   ar
    12    15    16   ar
    13    16    17   ar
    14    17    20    1
    15    20    21    1
    16    21    22    1
    17    22    23    1
    18    23    24    1
    19    24    25    1
    20    25    26    1
    21    26    27    1
    22    27    28    1
    23    17    18   ar
    24    18    19   ar
    25     8     9    1
    26     9    10    1
    27     9    11    1
    28    11    12    2
    29    11    13    2
    30     6     1   ar
    31    19    14   ar
    32    11     4    1
    33    28    24    1
@<TRIPOS>MOLECULE
*****
 30 33 0 0 0
SMALL
GASTEIGER

@<TRIPOS>ATOM
      1 C         141.3697  142.2135  169.6410 C.ar    1  UNL1        0.1418
      2 C         142.0204  140.9261  170.0521 C.ar    1  UNL1        0.0384
      3 C         142.5367  139.9800  169.0089 C.ar    1  UNL1        0.0246
      4 C         142.4023  140.3214  167.5545 C.ar    1  UNL1        0.1397
      5 C         141.7516  141.6088  167.1433 C.ar    1  UNL1        0.1589
      6 C         141.2353  142.5549  168.1866 C.ar    1  UNL1        0.0751
      7 O         141.6172  141.9503  165.6888 O.3     1  UNL1       -0.4716
      8 C         142.1336  141.0042  164.6456 C.3     1  UNL1        0.2102
      9 C         142.7843  139.7168  165.0568 C.3     1  UNL1        0.1779
     10 C         143.3007  138.7707  164.0135 C.3     1  UNL1        0.0300
     11 S         142.9187  139.3754  166.5112 S.O2    1  UNL1        0.0137
     12 O         143.2754  138.6136  167.7531 O.2     1  UNL1       -0.1685
     13 O         143.5589  138.1648  165.8992 O.2     1  UNL1       -0.1685
     14 C         141.9992  141.3456  163.1911 C.ar    1  UNL1        0.0191
     15 C         143.1999  141.7947  162.4121 C.ar    1  UNL1        0.0023
     16 C         143.0655  142.1361  160.9577 C.ar    1  UNL1        0.0367
     17 C         141.7306  142.0284  160.2822 C.ar    1  UNL1        0.1385
     18 C         140.5299  141.5793  161.0612 C.ar    1  UNL1        0.0367
     19 C         140.6643  141.2379  162.5157 C.ar    1  UNL1        0.0023
     20 O         141.5962  142.3698  158.8278 O.3     1  UNL1       -0.4754
     21 C         141.1813  143.7515  158.4169 C.3     1  UNL1        0.2068
     22 C         141.3888  144.9060  159.3518 C.3     1  UNL1        0.0646
     23 C         140.2547  145.3949  160.2031 C.3     1  UNL1        0.0759
     24 N         140.2745  145.1618  161.6848 N.3     1  UNL1       -0.2726
     25 C         139.0786  144.9032  162.5526 C.3     1  UNL1        0.0721
     26 C         139.5585  144.7279  163.9629 C.3     1  UNL1        0.0188
     27 C         141.0510  144.8782  163.9667 C.3     1  UNL1        0.0188
     28 C         141.4934  145.1464  162.5587 C.3     1  UNL1        0.0721
     29 C         140.3153  144.5002  170.2805 C.3     1  UNL1        0.2525
     30 O         140.8533  143.1595  170.6842 O.3     1  UNL1       -0.4713
@<TRIPOS>BOND
     1    29    30    1
     2    30     1    1
     3     1     2   ar
     4     2     3   ar
     5     3     4   ar
     6     4     5   ar
     7     5     6   ar
     8     5     7    1
     9     7     8    1
    10     8    14    1
    11    14    15   ar
    12    15    16   ar
    13    16    17   ar
    14    17    20    1
    15    20    21    1
    16    21    22    1
    17    22    23    1
    18    23    24    1
    19    24    25    1
    20    25    26    1
    21    26    27    1
    22    27    28    1
    23    17    18   ar
    24    18    19   ar
    25     8     9    1
    26     9    10    1
    27     9    11    1
    28    11    12    2
    29    11    13    2
    30     6     1   ar
    31    19    14   ar
    32    11     4    1
    33    28    24    1
@<TRIPOS>MOLECULE
*****
 30 33 0 0 0
SMALL
GASTEIGER

@<TRIPOS>ATOM
      1 C         140.9857  141.9379  169.7364 C.ar    1  UNL1        0.1418
      2 C         139.7174  141.2001  170.0476 C.ar    1  UNL1        0.0384
      3 C         139.1182  140.2760  169.0293 C.ar    1  UNL1        0.0246
      4 C         139.7872  140.0897  167.6998 C.ar    1  UNL1        0.1397
      5 C         141.0555  140.8276  167.3886 C.ar    1  UNL1        0.1589
      6 C         141.6548  141.7517  168.4069 C.ar    1  UNL1        0.0751
      7 O         141.7246  140.6413  166.0590 O.3     1  UNL1       -0.4716
      8 C         141.1254  139.7172  165.0407 C.3     1  UNL1        0.2102
      9 C         139.8570  138.9793  165.3520 C.3     1  UNL1        0.1779
     10 C         139.2577  138.0552  164.3337 C.3     1  UNL1        0.0300
     11 S         139.1879  139.1656  166.6815 S.O2    1  UNL1        0.0137
     12 O         138.1905  139.0124  167.7913 O.2     1  UNL1       -0.1685
     13 O         138.2423  138.1883  166.0487 O.2     1  UNL1       -0.1685
     14 C         141.7944  139.5310  163.7112 C.ar    1  UNL1        0.0191
     15 C         142.5583  138.2719  163.4258 C.ar    1  UNL1        0.0023
     16 C         143.2273  138.0857  162.0963 C.ar    1  UNL1        0.0367
     17 C         143.1325  139.1584  161.0521 C.ar    1  UNL1        0.1385
     18 C         142.3687  140.4174  161.3375 C.ar    1  UNL1        0.0367
     19 C         141.6996  140.6037  162.6670 C.ar    1  UNL1        0.0023
     20 O         143.8016  138.9722  159.7226 O.3     1  UNL1       -0.4754
     21 C         143.2581  139.6617  158.5063 C.3     1  UNL1        0.2068
     22 C         142.0112  139.1497  157.8483 C.3     1  UNL1        0.0646
     23 C         140.7520  139.9636  157.8916 C.3     1  UNL1        0.0759
     24 N         139.7699  139.7670  159.0082 N.3     1  UNL1       -0.2726
     25 C         138.7311  140.7537  159.4527 C.3     1  UNL1        0.0721
     26 C         137.9733  140.1458  160.5956 C.3     1  UNL1        0.0188
     27 C         138.5438  138.7834  160.8575 C.3     1  UNL1        0.0188
     28 C         139.6541  138.5493  159.8764 C.3     1  UNL1        0.0721
     29 C         143.0311  143.2485  170.6577 C.3     1  UNL1        0.2525
     30 O         141.5850  142.8620  170.7546 O.3     1  UNL1       -0.4713
@<TRIPOS>BOND
     1    29    30    1
     2    30     1    1
     3     1     2   ar
     4     2     3   ar
     5     3     4   ar
     6     4     5   ar
     7     5     6   ar
     8     5     7    1
     9     7     8    1
    10     8    14    1
    11    14    15   ar
    12    15    16   ar
    13    16    17   ar
    14    17    20    1
    15    20    21    1
    16    21    22    1
    17    22    23    1
    18    23    24    1
    19    24    25    1
    20    25    26    1
    21    26    27    1
    22    27    28    1
    23    17    18   ar
    24    18    19   ar
    25     8     9    1
    26     9    10    1
    27     9    11    1
    28    11    12    2
    29    11    13    2
    30     6     1   ar
    31    19    14   ar
    32    11     4    1
    33    28    24    1
@<TRIPOS>MOLECULE
*****
 30 33 0 0 0
SMALL
GASTEIGER

@<TRIPOS>ATOM
      1 C         137.7117  142.6896  156.1872 C.ar    1  UNL1        0.1418
      2 C         138.6401  143.7862  155.7566 C.ar    1  UNL1        0.0384
      3 C         139.5867  144.3991  156.7457 C.ar    1  UNL1        0.0246
      4 C         139.6049  143.9154  158.1654 C.ar    1  UNL1        0.1397
      5 C         138.6765  142.8188  158.5960 C.ar    1  UNL1        0.1589
      6 C         137.7298  142.2059  157.6069 C.ar    1  UNL1        0.0751
      7 O         138.6946  142.3350  160.0158 O.3     1  UNL1       -0.4716
      8 C         139.6412  142.9479  161.0049 C.3     1  UNL1        0.2102
      9 C         140.5697  144.0445  160.5742 C.3     1  UNL1        0.1779
     10 C         141.5163  144.6574  161.5633 C.3     1  UNL1        0.0300
     11 S         140.5515  144.5282  159.1545 S.O2    1  UNL1        0.0137
     12 O         140.9047  145.3203  157.9307 O.2     1  UNL1       -0.1685
     13 O         141.6207  145.4162  159.7186 O.2     1  UNL1       -0.1685
     14 C         139.6594  142.4642  162.4246 C.ar    1  UNL1        0.0191
     15 C         140.7786  141.5882  162.9043 C.ar    1  UNL1        0.0023
     16 C         140.7968  141.1045  164.3240 C.ar    1  UNL1        0.0367
     17 C         139.6957  141.4967  165.2642 C.ar    1  UNL1        0.1385
     18 C         138.5766  142.3727  164.7846 C.ar    1  UNL1        0.0367
     19 C         138.5583  142.8565  163.3648 C.ar    1  UNL1        0.0023
     20 O         139.7139  141.0130  166.6839 O.3     1  UNL1       -0.4754
     21 C         139.1277  139.6759  167.0283 C.3     1  UNL1        0.2068
     22 C         138.2492  138.9655  166.0415 C.3     1  UNL1        0.0646
     23 C         138.8300  137.9180  165.1386 C.3     1  UNL1        0.0759
     24 N         138.9553  138.1817  163.6673 N.3     1  UNL1       -0.2726
     25 C         140.0206  137.6382  162.7618 C.3     1  UNL1        0.0721
     26 C         139.7611  138.1557  161.3780 C.3     1  UNL1        0.0188
     27 C         138.5355  139.0191  161.4283 C.3     1  UNL1        0.0188
     28 C         138.0375  139.0351  162.8432 C.3     1  UNL1        0.0721
     29 C         135.9366  140.8891  155.5894 C.3     1  UNL1        0.2525
     30 O         136.7651  142.0767  155.1981 O.3     1  UNL1       -0.4713
@<TRIPOS>BOND
     1    29    30    1
     2    30     1    1
     3     1     2   ar
     4     2     3   ar
     5     3     4   ar
     6     4     5   ar
     7     5     6   ar
     8     5     7    1
     9     7     8    1
    10     8    14    1
    11    14    15   ar
    12    15    16   ar
    13    16    17   ar
    14    17    20    1
    15    20    21    1
    16    21    22    1
    17    22    23    1
    18    23    24    1
    19    24    25    1
    20    25    26    1
    21    26    27    1
    22    27    28    1
    23    17    18   ar
    24    18    19   ar
    25     8     9    1
    26     9    10    1
    27     9    11    1
    28    11    12    2
    29    11    13    2
    30     6     1   ar
    31    19    14   ar
    32    11     4    1
    33    28    24    1
@<TRIPOS>MOLECULE
*****
 30 33 0 0 0
SMALL
GASTEIGER

@<TRIPOS>ATOM
      1 C         140.8860  142.3233  169.6395 C.ar    1  UNL1        0.1418
      2 C         139.8472  141.4078  170.2162 C.ar    1  UNL1        0.0384
      3 C         139.1805  140.3859  169.3437 C.ar    1  UNL1        0.0246
      4 C         139.5526  140.2796  167.8945 C.ar    1  UNL1        0.1397
      5 C         140.5914  141.1951  167.3178 C.ar    1  UNL1        0.1589
      6 C         141.2581  142.2170  168.1903 C.ar    1  UNL1        0.0751
      7 O         140.9635  141.0888  165.8685 O.3     1  UNL1       -0.4716
      8 C         140.2968  140.0669  164.9960 C.3     1  UNL1        0.2102
      9 C         139.2579  139.1513  165.5728 C.3     1  UNL1        0.1779
     10 C         138.5912  138.1295  164.7003 C.3     1  UNL1        0.0300
     11 S         138.8858  139.2577  167.0220 S.O2    1  UNL1        0.0137
     12 O         138.1994  138.9750  168.3254 O.2     1  UNL1       -0.1685
     13 O         137.9807  138.1377  166.6022 O.2     1  UNL1       -0.1685
     14 C         140.6688  139.9606  163.5468 C.ar    1  UNL1        0.0191
     15 C         140.3507  141.0850  162.6063 C.ar    1  UNL1        0.0023
     16 C         140.7228  140.9787  161.1571 C.ar    1  UNL1        0.0367
     17 C         141.4130  139.7480  160.6484 C.ar    1  UNL1        0.1385
     18 C         141.7311  138.6235  161.5888 C.ar    1  UNL1        0.0367
     19 C         141.3590  138.7298  163.0381 C.ar    1  UNL1        0.0023
     20 O         141.7850  139.6416  159.1992 O.3     1  UNL1       -0.4754
     21 C         142.3671  140.8256  158.4854 C.3     1  UNL1        0.2068
     22 C         143.8546  141.0109  158.4296 C.3     1  UNL1        0.0646
     23 C         144.5080  142.0840  159.2489 C.3     1  UNL1        0.0759
     24 N         144.2426  142.1686  160.7229 N.3     1  UNL1       -0.2726
     25 C         143.5776  143.3092  161.4349 C.3     1  UNL1        0.0721
     26 C         143.5195  142.9730  162.8956 C.3     1  UNL1        0.0188
     27 C         144.1486  141.6247  163.0863 C.3     1  UNL1        0.0188
     28 C         144.5954  141.1275  161.7435 C.3     1  UNL1        0.0721
     29 C         143.0451  143.3438  170.6625 C.3     1  UNL1        0.2525
     30 O         141.5527  143.3452  170.5120 O.3     1  UNL1       -0.4713
@<TRIPOS>BOND
     1    29    30    1
     2    30     1    1
     3     1     2   ar
     4     2     3   ar
     5     3     4   ar
     6     4     5   ar
     7     5     6   ar
     8     5     7    1
     9     7     8    1
    10     8    14    1
    11    14    15   ar
    12    15    16   ar
    13    16    17   ar
    14    17    20    1
    15    20    21    1
    16    21    22    1
    17    22    23    1
    18    23    24    1
    19    24    25    1
    20    25    26    1
    21    26    27    1
    22    27    28    1
    23    17    18   ar
    24    18    19   ar
    25     8     9    1
    26     9    10    1
    27     9    11    1
    28    11    12    2
    29    11    13    2
    30     6     1   ar
    31    19    14   ar
    32    11     4    1
    33    28    24    1
@<TRIPOS>MOLECULE
*****
 30 33 0 0 0
SMALL
GASTEIGER

@<TRIPOS>ATOM
      1 C         141.7210  141.7456  168.9096 C.ar    1  UNL1        0.1418
      2 C         140.4185  141.1378  169.3385 C.ar    1  UNL1        0.0384
      3 C         139.6439  140.2753  168.3867 C.ar    1  UNL1        0.0246
      4 C         140.1717  140.0206  167.0059 C.ar    1  UNL1        0.1397
      5 C         141.4742  140.6284  166.5770 C.ar    1  UNL1        0.1589
      6 C         142.2489  141.4909  167.5289 C.ar    1  UNL1        0.0751
      7 O         142.0022  140.3737  165.1963 O.3     1  UNL1       -0.4716
      8 C         141.2275  139.5112  164.2444 C.3     1  UNL1        0.2102
      9 C         139.9249  138.9034  164.6734 C.3     1  UNL1        0.1779
     10 C         139.1503  138.0409  163.7216 C.3     1  UNL1        0.0300
     11 S         139.3971  139.1581  166.0541 S.O2    1  UNL1        0.0137
     12 O         138.4909  139.1071  167.2483 O.2     1  UNL1       -0.1685
     13 O         138.3077  138.2779  165.5170 O.2     1  UNL1       -0.1685
     14 C         141.7554  139.2565  162.8637 C.ar    1  UNL1        0.0191
     15 C         142.7038  138.1199  162.6211 C.ar    1  UNL1        0.0023
     16 C         143.2316  137.8652  161.2404 C.ar    1  UNL1        0.0367
     17 C         142.8111  138.7471  160.1022 C.ar    1  UNL1        0.1385
     18 C         141.8628  139.8836  160.3447 C.ar    1  UNL1        0.0367
     19 C         141.3348  140.1383  161.7255 C.ar    1  UNL1        0.0023
     20 O         143.3390  138.4923  158.7215 O.3     1  UNL1       -0.4754
     21 C         142.6079  137.5629  157.7986 C.3     1  UNL1        0.2068
     22 C         143.1295  137.3170  156.4139 C.3     1  UNL1        0.0646
     23 C         143.8212  136.0257  156.0914 C.3     1  UNL1        0.0759
     24 N         143.0206  134.7693  155.9162 N.3     1  UNL1       -0.2726
     25 C         141.8245  134.6030  155.0263 C.3     1  UNL1        0.0721
     26 C         141.3401  133.1897  155.1601 C.3     1  UNL1        0.0188
     27 C         142.2369  132.4825  156.1327 C.3     1  UNL1        0.0188
     28 C         143.2754  133.4588  156.5999 C.3     1  UNL1        0.0721
     29 C         143.9925  142.5204  169.9048 C.3     1  UNL1        0.2525
     30 O         142.4957  142.6082  169.8614 O.3     1  UNL1       -0.4713
@<TRIPOS>BOND
     1    29    30    1
     2    30     1    1
     3     1     2   ar
     4     2     3   ar
     5     3     4   ar
     6     4     5   ar
     7     5     6   ar
     8     5     7    1
     9     7     8    1
    10     8    14    1
    11    14    15   ar
    12    15    16   ar
    13    16    17   ar
    14    17    20    1
    15    20    21    1
    16    21    22    1
    17    22    23    1
    18    23    24    1
    19    24    25    1
    20    25    26    1
    21    26    27    1
    22    27    28    1
    23    17    18   ar
    24    18    19   ar
    25     8     9    1
    26     9    10    1
    27     9    11    1
    28    11    12    2
    29    11    13    2
    30     6     1   ar
    31    19    14   ar
    32    11     4    1
    33    28    24    1
