@<TRIPOS>MOLECULE
*****
 29 33 0 0 0
SMALL
GASTEIGER

@<TRIPOS>ATOM
      1 O         137.2356  139.0419  161.3334 O.2     1  UNL1       -0.2523
      2 C         138.0890  140.2703  161.4469 C.2     1  UNL1        0.3072
      3 N         138.3724  141.1016  160.2310 N.am    1  UNL1       -0.2626
      4 C         137.7551  140.6168  158.9528 C.3     1  UNL1        0.0964
      5 C         137.8486  141.2184  157.5819 C.3     1  UNL1        0.0389
      6 C         138.5825  142.4535  157.1506 C.3     1  UNL1        0.0739
      7 N         139.4042  143.3920  157.9838 N.3     1  UNL1       -0.2725
      8 C         139.6949  143.3271  159.4539 C.3     1  UNL1        0.0939
      9 C         139.2357  142.3079  160.4540 C.3     1  UNL1        0.1122
     10 N         138.6588  140.6674  162.7764 N.am    1  UNL1       -0.2640
     11 C         139.5248  141.8629  163.0429 C.3     1  UNL1        0.0950
     12 C         139.8639  141.8731  164.5040 C.3     1  UNL1        0.0245
     13 C         139.2076  140.6839  165.1406 C.3     1  UNL1        0.0348
     14 C         138.4953  139.4597  165.6346 C.3     1  UNL1        0.0045
     15 C         138.5706  139.0820  167.0843 C.3     1  UNL1        0.0174
     16 C         139.3582  139.9285  168.0400 C.3     1  UNL1        0.0720
     17 N         140.0704  141.1526  167.5459 N.3     1  UNL1       -0.2737
     18 C         139.9952  141.5303  166.0963 C.3     1  UNL1        0.0737
     19 C         138.4628  139.9387  164.0728 C.3     1  UNL1        0.0962
     20 C         140.8580  141.9991  168.5016 C.3     1  UNL1        0.0625
     21 C         140.2052  143.1638  169.1851 C.3     1  UNL1        0.0481
     22 C         140.9928  144.0102  170.1408 C.3     1  UNL1        0.1435
     23 O         142.4331  143.6919  170.4129 O.3     1  UNL1       -0.3537
     24 C         143.0859  142.5272  169.7294 C.3     1  UNL1        0.1435
     25 C         142.2983  141.6808  168.7738 C.3     1  UNL1        0.0481
     26 C         140.0161  144.5481  157.2496 C.3     1  UNL1        0.0576
     27 C         140.3240  144.8487  155.8127 C.3     1  UNL1        0.0160
     28 C         140.8813  146.1831  156.2112 C.3     1  UNL1        0.0028
     29 C         140.5734  145.8825  157.6482 C.3     1  UNL1        0.0160
@<TRIPOS>BOND
     1     1     2    2
     2     2     3   am
     3     3     4    1
     4     4     5    1
     5     5     6    1
     6     6     7    1
     7     7    26    1
     8    26    27    1
     9    27    28    1
    10    28    29    1
    11     7     8    1
    12     8     9    1
    13     2    10   am
    14    10    11    1
    15    11    12    1
    16    12    13    1
    17    13    14    1
    18    14    15    1
    19    15    16    1
    20    16    17    1
    21    17    20    1
    22    20    21    1
    23    21    22    1
    24    22    23    1
    25    23    24    1
    26    24    25    1
    27    17    18    1
    28    13    19    1
    29     9     3    1
    30    19    10    1
    31    29    26    1
    32    18    13    1
    33    25    20    1
@<TRIPOS>MOLECULE
*****
 29 33 0 0 0
SMALL
GASTEIGER

@<TRIPOS>ATOM
      1 O         138.4792  137.9156  161.1582 O.2     1  UNL1       -0.2523
      2 C         139.6428  138.8061  161.4793 C.2     1  UNL1        0.3072
      3 N         140.5897  139.2235  160.3936 N.am    1  UNL1       -0.2626
      4 C         140.2828  138.6953  159.0237 C.3     1  UNL1        0.0964
      5 C         141.0288  138.9271  157.7431 C.3     1  UNL1        0.0389
      6 C         142.2660  139.7443  157.5163 C.3     1  UNL1        0.0739
      7 N         143.0628  140.5316  158.5140 N.3     1  UNL1       -0.2725
      8 C         142.8192  140.6960  159.9850 C.3     1  UNL1        0.0939
      9 C         141.7186  140.1139  160.8214 C.3     1  UNL1        0.1122
     10 N         139.8593  139.2791  162.8862 N.am    1  UNL1       -0.2640
     11 C         140.9724  140.1681  163.3561 C.3     1  UNL1        0.0950
     12 C         140.8018  140.3846  164.8305 C.3     1  UNL1        0.0245
     13 C         139.5832  139.6295  165.2720 C.3     1  UNL1        0.0348
     14 C         138.3487  138.8291  165.5640 C.3     1  UNL1        0.0045
     15 C         137.8076  138.7679  166.9616 C.3     1  UNL1        0.0174
     16 C         138.5011  139.5072  168.0673 C.3     1  UNL1        0.0720
     17 N         139.7356  140.3076  167.7754 N.3     1  UNL1       -0.2737
     18 C         140.2766  140.3688  166.3777 C.3     1  UNL1        0.0737
     19 C         139.0007  138.9462  164.0704 C.3     1  UNL1        0.0962
     20 C         140.4290  141.0469  168.8811 C.3     1  UNL1        0.0625
     21 C         141.0662  140.2874  170.0067 C.3     1  UNL1        0.0481
     22 C         141.7596  141.0267  171.1124 C.3     1  UNL1        0.1435
     23 O         141.8159  142.5255  171.0925 O.3     1  UNL1       -0.3537
     24 C         141.1788  143.2850  169.9668 C.3     1  UNL1        0.1435
     25 C         140.4853  142.5457  168.8611 C.3     1  UNL1        0.0481
     26 C         144.2618  141.2492  157.9686 C.3     1  UNL1        0.0576
     27 C         144.9974  142.5072  158.3240 C.3     1  UNL1        0.0160
     28 C         145.9574  142.2642  157.1973 C.3     1  UNL1        0.0028
     29 C         145.2218  141.0062  156.8419 C.3     1  UNL1        0.0160
@<TRIPOS>BOND
     1     1     2    2
     2     2     3   am
     3     3     4    1
     4     4     5    1
     5     5     6    1
     6     6     7    1
     7     7    26    1
     8    26    27    1
     9    27    28    1
    10    28    29    1
    11     7     8    1
    12     8     9    1
    13     2    10   am
    14    10    11    1
    15    11    12    1
    16    12    13    1
    17    13    14    1
    18    14    15    1
    19    15    16    1
    20    16    17    1
    21    17    20    1
    22    20    21    1
    23    21    22    1
    24    22    23    1
    25    23    24    1
    26    24    25    1
    27    17    18    1
    28    13    19    1
    29     9     3    1
    30    19    10    1
    31    29    26    1
    32    18    13    1
    33    25    20    1
@<TRIPOS>MOLECULE
*****
 29 33 0 0 0
SMALL
GASTEIGER

@<TRIPOS>ATOM
      1 O         143.9080  138.1215  160.7794 O.2     1  UNL1       -0.2523
      2 C         143.4461  139.5324  160.9936 C.2     1  UNL1        0.3072
      3 N         143.2456  140.4426  159.8184 N.am    1  UNL1       -0.2626
      4 C         143.5348  139.8432  158.4742 C.3     1  UNL1        0.0964
      5 C         143.4323  140.4850  157.1223 C.3     1  UNL1        0.0389
      6 C         143.0151  141.8848  156.7808 C.3     1  UNL1        0.0739
      7 N         142.5976  142.9885  157.7068 N.3     1  UNL1       -0.2725
      8 C         142.4940  142.9650  159.2031 C.3     1  UNL1        0.0939
      9 C         142.7824  141.8320  160.1428 C.3     1  UNL1        0.1122
     10 N         143.1847  140.0331  162.3832 N.am    1  UNL1       -0.2640
     11 C         142.7217  141.4117  162.7512 C.3     1  UNL1        0.0950
     12 C         142.5913  141.4737  164.2442 C.3     1  UNL1        0.0245
     13 C         142.9737  140.1336  164.7991 C.3     1  UNL1        0.0348
     14 C         143.3814  138.7485  165.2056 C.3     1  UNL1        0.0045
     15 C         143.3947  138.3659  166.6559 C.3     1  UNL1        0.0174
     16 C         143.0004  139.3684  167.6997 C.3     1  UNL1        0.0720
     17 N         142.5927  140.7534  167.2932 N.3     1  UNL1       -0.2737
     18 C         142.5794  141.1360  165.8429 C.3     1  UNL1        0.0737
     19 C         143.3405  139.2432  163.6489 C.3     1  UNL1        0.0962
     20 C         142.1984  141.7559  168.3370 C.3     1  UNL1        0.0625
     21 C         140.8561  142.4219  168.2681 C.3     1  UNL1        0.0481
     22 C         140.4618  143.4244  169.3119 C.3     1  UNL1        0.1435
     23 O         141.4097  143.7609  170.4246 O.3     1  UNL1       -0.3537
     24 C         142.7520  143.0950  170.4935 C.3     1  UNL1        0.1435
     25 C         143.1463  142.0925  169.4497 C.3     1  UNL1        0.0481
     26 C         142.2357  144.2874  157.0497 C.3     1  UNL1        0.0576
     27 C         141.9464  145.6770  157.5347 C.3     1  UNL1        0.0160
     28 C         141.7241  146.1245  156.1204 C.3     1  UNL1        0.0028
     29 C         142.0134  144.7349  155.6353 C.3     1  UNL1        0.0160
@<TRIPOS>BOND
     1     1     2    2
     2     2     3   am
     3     3     4    1
     4     4     5    1
     5     5     6    1
     6     6     7    1
     7     7    26    1
     8    26    27    1
     9    27    28    1
    10    28    29    1
    11     7     8    1
    12     8     9    1
    13     2    10   am
    14    10    11    1
    15    11    12    1
    16    12    13    1
    17    13    14    1
    18    14    15    1
    19    15    16    1
    20    16    17    1
    21    17    20    1
    22    20    21    1
    23    21    22    1
    24    22    23    1
    25    23    24    1
    26    24    25    1
    27    17    18    1
    28    13    19    1
    29     9     3    1
    30    19    10    1
    31    29    26    1
    32    18    13    1
    33    25    20    1
@<TRIPOS>MOLECULE
*****
 29 33 0 0 0
SMALL
GASTEIGER

@<TRIPOS>ATOM
      1 O         144.2031  142.5527  158.7919 O.2     1  UNL1       -0.2523
      2 C         143.5569  141.2314  159.0859 C.2     1  UNL1        0.3072
      3 N         143.6417  140.1162  158.0865 N.am    1  UNL1       -0.2626
      4 C         144.3949  140.4266  156.8271 C.3     1  UNL1        0.0964
      5 C         144.6545  139.5355  155.6488 C.3     1  UNL1        0.0389
      6 C         144.2250  138.1137  155.4389 C.3     1  UNL1        0.0739
      7 N         143.4298  137.2319  156.3555 N.3     1  UNL1       -0.2725
      8 C         142.8677  137.5541  157.7084 C.3     1  UNL1        0.0939
      9 C         142.9620  138.8377  158.4787 C.3     1  UNL1        0.1122
     10 N         142.8258  141.0254  160.3794 N.am    1  UNL1       -0.2640
     11 C         142.1339  139.7662  160.8103 C.3     1  UNL1        0.0950
     12 C         141.5388  140.0051  162.1663 C.3     1  UNL1        0.0245
     13 C         141.8629  141.4119  162.5736 C.3     1  UNL1        0.0348
     14 C         142.2617  142.8325  162.8433 C.3     1  UNL1        0.0045
     15 C         141.8608  143.4927  164.1291 C.3     1  UNL1        0.0174
     16 C         141.0611  142.7324  165.1452 C.3     1  UNL1        0.0720
     17 N         140.6623  141.3118  164.8754 N.3     1  UNL1       -0.2737
     18 C         141.0632  140.6516  163.5896 C.3     1  UNL1        0.0737
     19 C         142.6584  142.0425  161.4692 C.3     1  UNL1        0.0962
     20 C         139.8626  140.5514  165.8914 C.3     1  UNL1        0.0625
     21 C         138.8030  139.5886  165.4441 C.3     1  UNL1        0.0481
     22 C         138.0033  138.8282  166.4602 C.3     1  UNL1        0.1435
     23 O         138.2632  139.0307  167.9235 O.3     1  UNL1       -0.3537
     24 C         139.3228  139.9935  168.3708 C.3     1  UNL1        0.1435
     25 C         140.1225  140.7539  167.3548 C.3     1  UNL1        0.0481
     26 C         143.1612  135.8444  155.8527 C.3     1  UNL1        0.0576
     27 C         143.0915  134.4838  156.4803 C.3     1  UNL1        0.0160
     28 C         142.7814  133.8822  155.1417 C.3     1  UNL1        0.0028
     29 C         142.8511  135.2428  154.5140 C.3     1  UNL1        0.0160
@<TRIPOS>BOND
     1     1     2    2
     2     2     3   am
     3     3     4    1
     4     4     5    1
     5     5     6    1
     6     6     7    1
     7     7    26    1
     8    26    27    1
     9    27    28    1
    10    28    29    1
    11     7     8    1
    12     8     9    1
    13     2    10   am
    14    10    11    1
    15    11    12    1
    16    12    13    1
    17    13    14    1
    18    14    15    1
    19    15    16    1
    20    16    17    1
    21    17    20    1
    22    20    21    1
    23    21    22    1
    24    22    23    1
    25    23    24    1
    26    24    25    1
    27    17    18    1
    28    13    19    1
    29     9     3    1
    30    19    10    1
    31    29    26    1
    32    18    13    1
    33    25    20    1
@<TRIPOS>MOLECULE
*****
 29 33 0 0 0
SMALL
GASTEIGER

@<TRIPOS>ATOM
      1 O         141.6584  145.2368  158.9948 O.2     1  UNL1       -0.2523
      2 C         140.5423  144.2446  159.1361 C.2     1  UNL1        0.3072
      3 N         139.6575  143.9391  157.9641 N.am    1  UNL1       -0.2626
      4 C         139.9743  144.6799  156.6989 C.3     1  UNL1        0.0964
      5 C         139.2848  144.5979  155.3693 C.3     1  UNL1        0.0389
      6 C         138.1080  143.7546  154.9766 C.3     1  UNL1        0.0739
      7 N         137.3302  142.7852  155.8165 N.3     1  UNL1       -0.2725
      8 C         137.5371  142.4196  157.2565 C.3     1  UNL1        0.0939
      9 C         138.5728  142.9332  158.2122 C.3     1  UNL1        0.1122
     10 N         140.3112  143.5578  160.4494 N.am    1  UNL1       -0.2640
     11 C         139.2407  142.5480  160.7400 C.3     1  UNL1        0.0950
     12 C         139.3779  142.1264  162.1729 C.3     1  UNL1        0.0245
     13 C         140.5331  142.8756  162.7681 C.3     1  UNL1        0.0348
     14 C         141.7061  143.6925  163.2226 C.3     1  UNL1        0.0045
     15 C         142.1981  143.5773  164.6349 C.3     1  UNL1        0.0174
     16 C         141.5171  142.6452  165.5927 C.3     1  UNL1        0.0720
     17 N         140.3440  141.8283  165.1382 N.3     1  UNL1       -0.2737
     18 C         139.8521  141.9435  163.7259 C.3     1  UNL1        0.0737
     19 C         141.1099  143.7603  161.7029 C.3     1  UNL1        0.0962
     20 C         139.6630  140.8961  166.0959 C.3     1  UNL1        0.0625
     21 C         138.6028  139.9568  165.6025 C.3     1  UNL1        0.0481
     22 C         137.9218  139.0246  166.5602 C.3     1  UNL1        0.1435
     23 O         138.3009  139.0319  168.0115 O.3     1  UNL1       -0.3537
     24 C         139.3611  139.9712  168.5049 C.3     1  UNL1        0.1435
     25 C         140.0422  140.9034  167.5472 C.3     1  UNL1        0.0481
     26 C         136.1955  142.0894  155.1248 C.3     1  UNL1        0.0576
     27 C         135.6712  142.0546  153.7198 C.3     1  UNL1        0.0160
     28 C         134.5908  141.1055  154.1465 C.3     1  UNL1        0.0028
     29 C         135.1151  141.1403  155.5515 C.3     1  UNL1        0.0160
@<TRIPOS>BOND
     1     1     2    2
     2     2     3   am
     3     3     4    1
     4     4     5    1
     5     5     6    1
     6     6     7    1
     7     7    26    1
     8    26    27    1
     9    27    28    1
    10    28    29    1
    11     7     8    1
    12     8     9    1
    13     2    10   am
    14    10    11    1
    15    11    12    1
    16    12    13    1
    17    13    14    1
    18    14    15    1
    19    15    16    1
    20    16    17    1
    21    17    20    1
    22    20    21    1
    23    21    22    1
    24    22    23    1
    25    23    24    1
    26    24    25    1
    27    17    18    1
    28    13    19    1
    29     9     3    1
    30    19    10    1
    31    29    26    1
    32    18    13    1
    33    25    20    1
@<TRIPOS>MOLECULE
*****
 29 33 0 0 0
SMALL
GASTEIGER

@<TRIPOS>ATOM
      1 O         143.2116  143.3336  159.9055 O.2     1  UNL1       -0.2523
      2 C         142.7024  142.1121  160.6116 C.2     1  UNL1        0.3072
      3 N         142.2222  142.2108  162.0292 N.am    1  UNL1       -0.2626
      4 C         142.2937  143.5757  162.6470 C.3     1  UNL1        0.0964
      5 C         141.8947  143.9985  164.0298 C.3     1  UNL1        0.0389
      6 C         141.3255  143.1607  165.1362 C.3     1  UNL1        0.0739
      7 N         141.0147  141.6932  165.1331 N.3     1  UNL1       -0.2725
      8 C         141.1965  140.7011  164.0228 C.3     1  UNL1        0.0939
      9 C         141.7338  140.9314  162.6415 C.3     1  UNL1        0.1122
     10 N         142.6734  140.7919  159.9002 N.am    1  UNL1       -0.2640
     11 C         142.1942  139.4914  160.4739 C.3     1  UNL1        0.0950
     12 C         142.3432  138.4361  159.4184 C.3     1  UNL1        0.0245
     13 C         142.9145  139.0844  158.1922 C.3     1  UNL1        0.0348
     14 C         143.4857  139.8671  157.0471 C.3     1  UNL1        0.0045
     15 C         143.7980  139.1800  155.7509 C.3     1  UNL1        0.0174
     16 C         143.5392  137.7103  155.5996 C.3     1  UNL1        0.0720
     17 N         142.9680  136.9276  156.7446 N.3     1  UNL1       -0.2737
     18 C         142.6557  137.6146  158.0409 C.3     1  UNL1        0.0737
     19 C         143.1186  140.5403  158.4899 C.3     1  UNL1        0.0962
     20 C         142.7092  135.4578  156.5934 C.3     1  UNL1        0.0625
     21 C         143.4542  134.4735  157.4454 C.3     1  UNL1        0.0481
     22 C         143.1954  133.0038  157.2942 C.3     1  UNL1        0.1435
     23 O         142.1916  132.5184  156.2909 O.3     1  UNL1       -0.3537
     24 C         141.4466  133.5027  155.4388 C.3     1  UNL1        0.1435
     25 C         141.7054  134.9724  155.5901 C.3     1  UNL1        0.0481
     26 C         140.4473  141.1455  166.4091 C.3     1  UNL1        0.0576
     27 C         139.6715  139.9176  166.7838 C.3     1  UNL1        0.0160
     28 C         139.6446  140.3708  168.2134 C.3     1  UNL1        0.0028
     29 C         140.4204  141.5988  167.8387 C.3     1  UNL1        0.0160
@<TRIPOS>BOND
     1     1     2    2
     2     2     3   am
     3     3     4    1
     4     4     5    1
     5     5     6    1
     6     6     7    1
     7     7    26    1
     8    26    27    1
     9    27    28    1
    10    28    29    1
    11     7     8    1
    12     8     9    1
    13     2    10   am
    14    10    11    1
    15    11    12    1
    16    12    13    1
    17    13    14    1
    18    14    15    1
    19    15    16    1
    20    16    17    1
    21    17    20    1
    22    20    21    1
    23    21    22    1
    24    22    23    1
    25    23    24    1
    26    24    25    1
    27    17    18    1
    28    13    19    1
    29     9     3    1
    30    19    10    1
    31    29    26    1
    32    18    13    1
    33    25    20    1
@<TRIPOS>MOLECULE
*****
 29 33 0 0 0
SMALL
GASTEIGER

@<TRIPOS>ATOM
      1 O         138.5432  137.6877  162.4820 O.2     1  UNL1       -0.2523
      2 C         139.6113  138.6811  162.8316 C.2     1  UNL1        0.3072
      3 N         139.6879  139.2424  164.2204 N.am    1  UNL1       -0.2626
      4 C         138.6498  138.7446  165.1818 C.3     1  UNL1        0.0964
      5 C         138.4598  139.1088  166.6245 C.3     1  UNL1        0.0389
      6 C         139.2612  140.0608  167.4620 C.3     1  UNL1        0.0739
      7 N         140.4504  140.8838  167.0638 N.3     1  UNL1       -0.2725
      8 C         141.1319  140.9580  165.7296 C.3     1  UNL1        0.0939
      9 C         140.7926  140.2276  164.4642 C.3     1  UNL1        0.1122
     10 N         140.6028  139.1131  161.7922 N.am    1  UNL1       -0.2640
     11 C         141.7204  140.0933  161.9933 C.3     1  UNL1        0.0950
     12 C         142.4592  140.2267  160.6947 C.3     1  UNL1        0.0245
     13 C         141.7982  139.3290  159.6910 C.3     1  UNL1        0.0348
     14 C         141.0373  138.3912  158.8014 C.3     1  UNL1        0.0045
     15 C         141.4510  138.2130  157.3707 C.3     1  UNL1        0.0174
     16 C         142.6256  138.9728  156.8295 C.3     1  UNL1        0.0720
     17 N         143.3866  139.9107  157.7190 N.3     1  UNL1       -0.2737
     18 C         142.9729  140.0888  159.1497 C.3     1  UNL1        0.0737
     19 C         140.6510  138.6408  160.3693 C.3     1  UNL1        0.0962
     20 C         144.5613  140.6704  157.1777 C.3     1  UNL1        0.0625
     21 C         145.0635  141.8871  157.8971 C.3     1  UNL1        0.0481
     22 C         146.2382  142.6468  157.3558 C.3     1  UNL1        0.1435
     23 O         146.9106  142.1900  156.0953 O.3     1  UNL1       -0.3537
     24 C         146.4083  140.9733  155.3759 C.3     1  UNL1        0.1435
     25 C         145.2337  140.2136  155.9172 C.3     1  UNL1        0.0481
     26 C         141.0353  141.7466  168.1424 C.3     1  UNL1        0.0576
     27 C         140.4729  142.6469  169.2021 C.3     1  UNL1        0.0160
     28 C         141.8624  142.9669  169.6678 C.3     1  UNL1        0.0028
     29 C         142.4249  142.0666  168.6080 C.3     1  UNL1        0.0160
@<TRIPOS>BOND
     1     1     2    2
     2     2     3   am
     3     3     4    1
     4     4     5    1
     5     5     6    1
     6     6     7    1
     7     7    26    1
     8    26    27    1
     9    27    28    1
    10    28    29    1
    11     7     8    1
    12     8     9    1
    13     2    10   am
    14    10    11    1
    15    11    12    1
    16    12    13    1
    17    13    14    1
    18    14    15    1
    19    15    16    1
    20    16    17    1
    21    17    20    1
    22    20    21    1
    23    21    22    1
    24    22    23    1
    25    23    24    1
    26    24    25    1
    27    17    18    1
    28    13    19    1
    29     9     3    1
    30    19    10    1
    31    29    26    1
    32    18    13    1
    33    25    20    1
@<TRIPOS>MOLECULE
*****
 29 33 0 0 0
SMALL
GASTEIGER

@<TRIPOS>ATOM
      1 O         145.3773  142.8441  159.7196 O.2     1  UNL1       -0.2523
      2 C         144.5099  141.6586  160.0231 C.2     1  UNL1        0.3072
      3 N         144.1610  140.6865  158.9354 N.am    1  UNL1       -0.2626
      4 C         144.7305  140.9923  157.5820 C.3     1  UNL1        0.0964
      5 C         144.5684  140.2243  156.3037 C.3     1  UNL1        0.0389
      6 C         143.7967  138.9606  156.0634 C.3     1  UNL1        0.0739
      7 N         142.9966  138.1530  157.0419 N.3     1  UNL1       -0.2725
      8 C         142.7705  138.4095  158.5024 C.3     1  UNL1        0.0939
      9 C         143.2887  139.5370  159.3451 C.3     1  UNL1        0.1122
     10 N         143.9915  141.4452  161.4144 N.am    1  UNL1       -0.2640
     11 C         143.1185  140.3120  161.8659 C.3     1  UNL1        0.0950
     12 C         142.8424  140.4940  163.3290 C.3     1  UNL1        0.0245
     13 C         143.5447  141.7398  163.7818 C.3     1  UNL1        0.0348
     14 C         144.2973  143.0010  164.0866 C.3     1  UNL1        0.0045
     15 C         144.2906  143.5606  165.4783 C.3     1  UNL1        0.0174
     16 C         143.5313  142.8590  166.5651 C.3     1  UNL1        0.0720
     17 N         142.7787  141.5978  166.2603 N.3     1  UNL1       -0.2737
     18 C         142.7854  141.0382  164.8687 C.3     1  UNL1        0.0737
     19 C         144.2548  142.3277  162.5985 C.3     1  UNL1        0.0962
     20 C         142.0194  140.8962  167.3472 C.3     1  UNL1        0.0625
     21 C         142.7599  140.1693  168.4303 C.3     1  UNL1        0.0481
     22 C         142.0006  139.4677  169.5172 C.3     1  UNL1        0.1435
     23 O         140.5008  139.4929  169.5208 O.3     1  UNL1       -0.3537
     24 C         139.7604  140.2198  168.4376 C.3     1  UNL1        0.1435
     25 C         140.5197  140.9214  167.3508 C.3     1  UNL1        0.0481
     26 C         142.3351  136.9267  156.4863 C.3     1  UNL1        0.0576
     27 C         141.0100  136.6337  155.8473 C.3     1  UNL1        0.0160
     28 C         141.3994  135.1925  155.7006 C.3     1  UNL1        0.0028
     29 C         142.7245  135.4856  156.3397 C.3     1  UNL1        0.0160
@<TRIPOS>BOND
     1     1     2    2
     2     2     3   am
     3     3     4    1
     4     4     5    1
     5     5     6    1
     6     6     7    1
     7     7    26    1
     8    26    27    1
     9    27    28    1
    10    28    29    1
    11     7     8    1
    12     8     9    1
    13     2    10   am
    14    10    11    1
    15    11    12    1
    16    12    13    1
    17    13    14    1
    18    14    15    1
    19    15    16    1
    20    16    17    1
    21    17    20    1
    22    20    21    1
    23    21    22    1
    24    22    23    1
    25    23    24    1
    26    24    25    1
    27    17    18    1
    28    13    19    1
    29     9     3    1
    30    19    10    1
    31    29    26    1
    32    18    13    1
    33    25    20    1
@<TRIPOS>MOLECULE
*****
 29 33 0 0 0
SMALL
GASTEIGER

@<TRIPOS>ATOM
      1 O         137.6893  138.0351  161.8096 O.2     1  UNL1       -0.2523
      2 C         138.2915  139.3573  162.1827 C.2     1  UNL1        0.3072
      3 N         138.7058  139.6195  163.6002 N.am    1  UNL1       -0.2626
      4 C         138.4747  138.4942  164.5646 C.3     1  UNL1        0.0964
      5 C         138.7771  138.4437  166.0329 C.3     1  UNL1        0.0389
      6 C         139.3855  139.5063  166.8995 C.3     1  UNL1        0.0739
      7 N         139.8415  140.8817  166.5118 N.3     1  UNL1       -0.2725
      8 C         139.8019  141.5342  165.1617 C.3     1  UNL1        0.0939
      9 C         139.2965  140.9725  163.8660 C.3     1  UNL1        0.1122
     10 N         138.4793  140.4173  161.1381 N.am    1  UNL1       -0.2640
     11 C         139.0645  141.7805  161.3605 C.3     1  UNL1        0.0950
     12 C         139.0617  142.5059  160.0476 C.3     1  UNL1        0.0245
     13 C         138.4749  141.5911  159.0137 C.3     1  UNL1        0.0348
     14 C         137.8716  140.5705  158.0948 C.3     1  UNL1        0.0045
     15 C         137.6786  140.8904  156.6421 C.3     1  UNL1        0.0174
     16 C         138.0889  142.2308  156.1083 C.3     1  UNL1        0.0720
     17 N         138.6921  143.2514  157.0272 N.3     1  UNL1       -0.2737
     18 C         138.8851  142.9315  158.4799 C.3     1  UNL1        0.0737
     19 C         138.1149  140.3003  159.6877 C.3     1  UNL1        0.0962
     20 C         139.1024  144.5918  156.4934 C.3     1  UNL1        0.0625
     21 C         138.2313  145.3022  155.5003 C.3     1  UNL1        0.0481
     22 C         138.6416  146.6427  154.9665 C.3     1  UNL1        0.1435
     23 O         139.9229  147.2727  155.4259 O.3     1  UNL1       -0.3537
     24 C         140.7940  146.5623  156.4191 C.3     1  UNL1        0.1435
     25 C         140.3838  145.2218  156.9528 C.3     1  UNL1        0.0481
     26 C         140.4127  141.7146  167.6208 C.3     1  UNL1        0.0576
     27 C         140.3507  143.1652  167.9978 C.3     1  UNL1        0.0160
     28 C         141.2204  142.8927  169.1892 C.3     1  UNL1        0.0028
     29 C         141.2824  141.4422  168.8122 C.3     1  UNL1        0.0160
@<TRIPOS>BOND
     1     1     2    2
     2     2     3   am
     3     3     4    1
     4     4     5    1
     5     5     6    1
     6     6     7    1
     7     7    26    1
     8    26    27    1
     9    27    28    1
    10    28    29    1
    11     7     8    1
    12     8     9    1
    13     2    10   am
    14    10    11    1
    15    11    12    1
    16    12    13    1
    17    13    14    1
    18    14    15    1
    19    15    16    1
    20    16    17    1
    21    17    20    1
    22    20    21    1
    23    21    22    1
    24    22    23    1
    25    23    24    1
    26    24    25    1
    27    17    18    1
    28    13    19    1
    29     9     3    1
    30    19    10    1
    31    29    26    1
    32    18    13    1
    33    25    20    1
