@<TRIPOS>MOLECULE
*****
 34 38 0 0 0
SMALL
GASTEIGER

@<TRIPOS>ATOM
      1 C         141.2367  141.8511  165.3074 C.ar    1  UNL1        0.0908
      2 C         141.0076  142.1835  166.7520 C.ar    1  UNL1        0.1496
      3 O         139.9512  143.2461  166.8212 O.2     1  UNL1       -0.4534
      4 C         139.5274  143.5705  165.4193 C.ar    1  UNL1        0.1454
      5 C         138.5207  144.5395  164.8739 C.ar    1  UNL1        0.0406
      6 C         138.3086  144.6464  163.3928 C.ar    1  UNL1        0.0395
      7 C         139.1031  143.7842  162.4572 C.ar    1  UNL1        0.1311
      8 O         138.8909  143.8910  160.9761 O.3     1  UNL1       -0.5058
      9 C         140.1098  142.8151  163.0027 C.ar    1  UNL1        0.0305
     10 C         140.3219  142.7083  164.4837 C.ar    1  UNL1        0.0421
     11 H         138.2621  144.4964  160.6354 H       1  UNL1        0.2922
     12 C         141.7113  141.5623  167.9221 C.ar    1  UNL1        0.0349
     13 C         142.7774  142.3275  168.6486 C.ar    1  UNL1        0.0061
     14 C         143.4811  141.7063  169.8186 C.ar    1  UNL1        0.0367
     15 C         143.1187  140.3200  170.2621 C.ar    1  UNL1        0.1337
     16 O         143.8224  139.6988  171.4321 O.3     1  UNL1       -0.5055
     17 C         142.0525  139.5549  169.5356 C.ar    1  UNL1        0.0367
     18 C         141.3488  140.1760  168.3656 C.ar    1  UNL1        0.0061
     19 H         144.4884  140.1768  171.8860 H       1  UNL1        0.2922
     20 O         143.5777  141.2714  164.3411 O.2     1  UNL1       -0.2698
     21 C         142.2098  140.8392  164.7791 C.2     1  UNL1        0.2521
     22 N         141.8149  139.3948  164.6888 N.am    1  UNL1       -0.2759
     23 C         142.4914  138.1370  164.2305 C.3     1  UNL1        0.0955
     24 C         141.2565  137.3524  164.5611 C.3     1  UNL1        0.0430
     25 C         140.5799  138.6102  165.0195 C.3     1  UNL1        0.0955
     26 C         140.9043  141.9529  162.0671 C.3     1  UNL1        0.0988
     27 N         142.2709  142.3861  161.6260 N.3     1  UNL1       -0.2917
     28 H         142.3653  142.1123  160.6480 H       1  UNL1        0.1236
     29 C         142.6633  143.8314  161.7107 C.3     1  UNL1        0.0960
     30 C         143.5047  144.3143  162.8549 C.3     1  UNL1        0.1029
     31 O         144.7666  143.5471  162.5923 O.3     1  UNL1       -0.3854
     32 C         143.9077  145.0637  164.0903 C.3     1  UNL1        0.0307
     33 C         142.5349  145.2493  163.5147 C.3     1  UNL1        0.0307
     34 H         144.6535  143.0003  161.7992 H       1  UNL1        0.2103
@<TRIPOS>BOND
     1    20    21    2
     2    21     1    1
     3     1     2   ar
     4     2    12    1
     5    12    13   ar
     6    13    14   ar
     7    14    15   ar
     8    15    16    1
     9    15    17   ar
    10    17    18   ar
    11     2     3   ar
    12     3     4   ar
    13     4     5   ar
    14     5     6   ar
    15     6     7   ar
    16     7     8    1
    17     7     9   ar
    18     9    26    1
    19    26    27    1
    20    27    29    1
    21    29    30    1
    22    30    31    1
    23    30    32    1
    24    32    33    1
    25     9    10   ar
    26    21    22   am
    27    22    23    1
    28    23    24    1
    29    24    25    1
    30    10     1   ar
    31    25    22    1
    32    18    12   ar
    33    10     4   ar
    34    33    30    1
    35    16    19    1
    36     8    11    1
    37    27    28    1
    38    31    34    1
@<TRIPOS>MOLECULE
*****
 34 38 0 0 0
SMALL
GASTEIGER

@<TRIPOS>ATOM
      1 C         141.4300  141.8424  165.3283 C.ar    1  UNL1        0.0908
      2 C         141.1867  142.1832  166.7687 C.ar    1  UNL1        0.1496
      3 O         140.1582  143.2738  166.8195 O.2     1  UNL1       -0.4534
      4 C         139.7658  143.6070  165.4106 C.ar    1  UNL1        0.1454
      5 C         138.7943  144.6017  164.8479 C.ar    1  UNL1        0.0406
      6 C         138.6089  144.7118  163.3635 C.ar    1  UNL1        0.0395
      7 C         139.3950  143.8271  162.4419 C.ar    1  UNL1        0.1311
      8 O         139.2095  143.9372  160.9574 O.3     1  UNL1       -0.5058
      9 C         140.3665  142.8324  163.0046 C.ar    1  UNL1        0.0305
     10 C         140.5519  142.7224  164.4890 C.ar    1  UNL1        0.0421
     11 H         138.6027  144.5585  160.6059 H       1  UNL1        0.2922
     12 C         141.8547  141.5453  167.9506 C.ar    1  UNL1        0.0349
     13 C         141.4920  140.1464  168.3525 C.ar    1  UNL1        0.0061
     14 C         142.1600  139.5086  169.5345 C.ar    1  UNL1        0.0367
     15 C         143.1906  140.2696  170.3145 C.ar    1  UNL1        0.1337
     16 O         143.8585  139.6318  171.4965 O.3     1  UNL1       -0.5055
     17 C         143.5533  141.6685  169.9126 C.ar    1  UNL1        0.0367
     18 C         142.8853  142.3064  168.7307 C.ar    1  UNL1        0.0061
     19 H         143.6320  138.7580  171.7475 H       1  UNL1        0.2922
     20 O         141.9468  139.3734  164.7061 O.2     1  UNL1       -0.2698
     21 C         142.3840  140.8039  164.8170 C.2     1  UNL1        0.2521
     22 N         143.7755  141.1960  164.4165 N.am    1  UNL1       -0.2759
     23 C         144.9702  140.4652  163.8794 C.3     1  UNL1        0.0955
     24 C         145.7431  141.7504  163.8502 C.3     1  UNL1        0.0430
     25 C         144.5484  142.4812  164.3874 C.3     1  UNL1        0.0955
     26 C         141.1525  141.9477  162.0830 C.3     1  UNL1        0.0988
     27 N         140.6959  140.5431  161.8211 N.3     1  UNL1       -0.2917
     28 H         141.3100  139.9292  162.3563 H       1  UNL1        0.1236
     29 C         139.2886  140.1389  162.1470 C.3     1  UNL1        0.0960
     30 C         139.0027  139.3574  163.3951 C.3     1  UNL1        0.1029
     31 O         139.8629  138.1529  163.1509 O.3     1  UNL1       -0.3854
     32 C         138.4181  138.9942  164.7279 C.3     1  UNL1        0.0307
     33 C         138.0434  140.2904  164.0725 C.3     1  UNL1        0.0307
     34 H         140.3177  138.2476  162.2994 H       1  UNL1        0.2103
@<TRIPOS>BOND
     1    20    21    2
     2    21     1    1
     3     1     2   ar
     4     2    12    1
     5    12    13   ar
     6    13    14   ar
     7    14    15   ar
     8    15    16    1
     9    15    17   ar
    10    17    18   ar
    11     2     3   ar
    12     3     4   ar
    13     4     5   ar
    14     5     6   ar
    15     6     7   ar
    16     7     8    1
    17     7     9   ar
    18     9    26    1
    19    26    27    1
    20    27    29    1
    21    29    30    1
    22    30    31    1
    23    30    32    1
    24    32    33    1
    25     9    10   ar
    26    21    22   am
    27    22    23    1
    28    23    24    1
    29    24    25    1
    30    10     1   ar
    31    25    22    1
    32    18    12   ar
    33    10     4   ar
    34    33    30    1
    35    16    19    1
    36     8    11    1
    37    27    28    1
    38    31    34    1
@<TRIPOS>MOLECULE
*****
 34 38 0 0 0
SMALL
GASTEIGER

@<TRIPOS>ATOM
      1 C         141.1327  141.1344  165.3832 C.ar    1  UNL1        0.0908
      2 C         140.9894  140.8244  166.8438 C.ar    1  UNL1        0.1496
      3 O         140.1686  139.5758  166.9742 O.2     1  UNL1       -0.4534
      4 C         139.8045  139.1140  165.5943 C.ar    1  UNL1        0.1454
      5 C         139.0075  137.9409  165.1061 C.ar    1  UNL1        0.0406
      6 C         138.8063  137.7310  163.6345 C.ar    1  UNL1        0.0395
      7 C         139.4022  138.6943  162.6512 C.ar    1  UNL1        0.1311
      8 O         139.2010  138.4844  161.1796 O.3     1  UNL1       -0.5058
      9 C         140.1993  139.8674  163.1394 C.ar    1  UNL1        0.0305
     10 C         140.4004  140.0773  164.6109 C.ar    1  UNL1        0.0421
     11 H         138.7031  137.7516  160.8746 H       1  UNL1        0.2922
     12 C         141.5658  141.6229  167.9752 C.ar    1  UNL1        0.0349
     13 C         143.0076  141.4555  168.3532 C.ar    1  UNL1        0.0061
     14 C         143.5840  142.2540  169.4847 C.ar    1  UNL1        0.0367
     15 C         142.7185  143.2199  170.2382 C.ar    1  UNL1        0.1337
     16 O         143.2948  144.0184  171.3697 O.3     1  UNL1       -0.5055
     17 C         141.2766  143.3873  169.8602 C.ar    1  UNL1        0.0367
     18 C         140.7002  142.5888  168.7287 C.ar    1  UNL1        0.0061
     19 H         144.1955  143.9138  171.6058 H       1  UNL1        0.2922
     20 O         141.1693  143.5974  164.5573 O.2     1  UNL1       -0.2698
     21 C         141.8775  142.2973  164.7976 C.2     1  UNL1        0.2521
     22 N         143.3309  142.1600  164.4522 N.am    1  UNL1       -0.2759
     23 C         144.3733  143.0684  163.8709 C.3     1  UNL1        0.0955
     24 C         145.3860  141.9657  163.9638 C.3     1  UNL1        0.0430
     25 C         144.3435  141.0573  164.5452 C.3     1  UNL1        0.0955
     26 C         140.7952  140.8307  162.1560 C.3     1  UNL1        0.0988
     27 N         140.0988  142.1255  161.8583 N.3     1  UNL1       -0.2917
     28 H         140.2291  142.3079  160.8633 H       1  UNL1        0.1236
     29 C         138.6319  142.2694  162.1365 C.3     1  UNL1        0.0960
     30 C         138.1462  143.3439  163.0637 C.3     1  UNL1        0.1029
     31 O         138.3525  144.5498  162.1958 O.3     1  UNL1       -0.3854
     32 C         137.5889  143.9996  164.2924 C.3     1  UNL1        0.0307
     33 C         137.7712  142.5111  164.2536 C.3     1  UNL1        0.0307
     34 H         138.7199  144.2742  161.3414 H       1  UNL1        0.2103
@<TRIPOS>BOND
     1    20    21    2
     2    21     1    1
     3     1     2   ar
     4     2    12    1
     5    12    13   ar
     6    13    14   ar
     7    14    15   ar
     8    15    16    1
     9    15    17   ar
    10    17    18   ar
    11     2     3   ar
    12     3     4   ar
    13     4     5   ar
    14     5     6   ar
    15     6     7   ar
    16     7     8    1
    17     7     9   ar
    18     9    26    1
    19    26    27    1
    20    27    29    1
    21    29    30    1
    22    30    31    1
    23    30    32    1
    24    32    33    1
    25     9    10   ar
    26    21    22   am
    27    22    23    1
    28    23    24    1
    29    24    25    1
    30    10     1   ar
    31    25    22    1
    32    18    12   ar
    33    10     4   ar
    34    33    30    1
    35    16    19    1
    36     8    11    1
    37    27    28    1
    38    31    34    1
@<TRIPOS>MOLECULE
*****
 34 38 0 0 0
SMALL
GASTEIGER

@<TRIPOS>ATOM
      1 C         140.4280  141.4463  165.5526 C.ar    1  UNL1        0.0908
      2 C         140.6506  142.0738  166.8967 C.ar    1  UNL1        0.1496
      3 O         139.9389  143.3941  166.9154 O.2     1  UNL1       -0.4534
      4 C         139.2764  143.5825  165.5829 C.ar    1  UNL1        0.1454
      5 C         138.4370  144.6947  165.0277 C.ar    1  UNL1        0.0406
      6 C         137.8998  144.6031  163.6303 C.ar    1  UNL1        0.0395
      7 C         138.2021  143.3993  162.7880 C.ar    1  UNL1        0.1311
      8 O         137.6648  143.3077  161.3904 O.3     1  UNL1       -0.5058
      9 C         139.0415  142.2870  163.3432 C.ar    1  UNL1        0.0305
     10 C         139.5787  142.3787  164.7407 C.ar    1  UNL1        0.0421
     11 H         137.1405  144.0025  161.0436 H       1  UNL1        0.2922
     12 C         141.4454  141.4845  168.0242 C.ar    1  UNL1        0.0349
     13 C         141.0596  140.1537  168.5985 C.ar    1  UNL1        0.0061
     14 C         141.8544  139.5644  169.7259 C.ar    1  UNL1        0.0367
     15 C         143.0351  140.3060  170.2790 C.ar    1  UNL1        0.1337
     16 O         143.8299  139.7168  171.4064 O.3     1  UNL1       -0.5055
     17 C         143.4209  141.6369  169.7047 C.ar    1  UNL1        0.0367
     18 C         142.6261  142.2261  168.5772 C.ar    1  UNL1        0.0061
     19 H         143.5888  138.8854  171.7652 H       1  UNL1        0.2922
     20 O         142.3709  140.0082  164.6003 O.2     1  UNL1       -0.2698
     21 C         140.9610  140.1193  165.1000 C.2     1  UNL1        0.2521
     22 N         140.0841  138.9031  165.1470 N.am    1  UNL1       -0.2759
     23 C         140.2572  137.4562  164.7914 C.3     1  UNL1        0.0955
     24 C         138.8439  137.1835  165.2134 C.3     1  UNL1        0.0430
     25 C         138.6707  138.6303  165.5690 C.3     1  UNL1        0.0955
     26 C         139.3437  141.0832  162.5009 C.3     1  UNL1        0.0988
     27 N         140.6935  140.9331  161.8642 N.3     1  UNL1       -0.2917
     28 H         140.5939  140.2396  161.1229 H       1  UNL1        0.1236
     29 C         141.3720  142.1240  161.2548 C.3     1  UNL1        0.0960
     30 C         142.2017  143.0342  162.1111 C.3     1  UNL1        0.1029
     31 O         143.0560  142.0221  162.8154 O.3     1  UNL1       -0.3854
     32 C         142.7347  144.2958  162.7229 C.3     1  UNL1        0.0307
     33 C         141.6355  144.3623  161.7042 C.3     1  UNL1        0.0307
     34 H         142.8184  141.1317  162.5128 H       1  UNL1        0.2103
@<TRIPOS>BOND
     1    20    21    2
     2    21     1    1
     3     1     2   ar
     4     2    12    1
     5    12    13   ar
     6    13    14   ar
     7    14    15   ar
     8    15    16    1
     9    15    17   ar
    10    17    18   ar
    11     2     3   ar
    12     3     4   ar
    13     4     5   ar
    14     5     6   ar
    15     6     7   ar
    16     7     8    1
    17     7     9   ar
    18     9    26    1
    19    26    27    1
    20    27    29    1
    21    29    30    1
    22    30    31    1
    23    30    32    1
    24    32    33    1
    25     9    10   ar
    26    21    22   am
    27    22    23    1
    28    23    24    1
    29    24    25    1
    30    10     1   ar
    31    25    22    1
    32    18    12   ar
    33    10     4   ar
    34    33    30    1
    35    16    19    1
    36     8    11    1
    37    27    28    1
    38    31    34    1
@<TRIPOS>MOLECULE
*****
 34 38 0 0 0
SMALL
GASTEIGER

@<TRIPOS>ATOM
      1 C         141.3112  141.6259  165.2169 C.ar    1  UNL1        0.0908
      2 C         141.0802  142.0257  166.6440 C.ar    1  UNL1        0.1496
      3 O         140.0412  143.1075  166.6599 O.2     1  UNL1       -0.4534
      4 C         139.6300  143.3762  165.2426 C.ar    1  UNL1        0.1454
      5 C         138.6423  144.3363  164.6489 C.ar    1  UNL1        0.0406
      6 C         138.4396  144.3808  163.1634 C.ar    1  UNL1        0.0395
      7 C         139.2245  143.4651  162.2715 C.ar    1  UNL1        0.1311
      8 O         139.0217  143.5096  160.7859 O.3     1  UNL1       -0.5058
      9 C         140.2122  142.5049  162.8652 C.ar    1  UNL1        0.0305
     10 C         140.4149  142.4605  164.3507 C.ar    1  UNL1        0.0421
     11 H         138.4047  144.1094  160.4150 H       1  UNL1        0.2922
     12 C         141.7675  141.4457  167.8445 C.ar    1  UNL1        0.0349
     13 C         141.4260  140.0606  168.3079 C.ar    1  UNL1        0.0061
     14 C         142.1133  139.4805  169.5084 C.ar    1  UNL1        0.0367
     15 C         143.1421  140.2856  170.2455 C.ar    1  UNL1        0.1337
     16 O         143.8294  139.7055  171.4460 O.3     1  UNL1       -0.5055
     17 C         143.4836  141.6707  169.7821 C.ar    1  UNL1        0.0367
     18 C         142.7963  142.2507  168.5816 C.ar    1  UNL1        0.0061
     19 H         143.6161  138.8403  171.7354 H       1  UNL1        0.2922
     20 O         141.8119  139.1557  164.5862 O.2     1  UNL1       -0.2698
     21 C         142.2701  140.5757  164.7396 C.2     1  UNL1        0.2521
     22 N         143.6873  140.9457  164.4158 N.am    1  UNL1       -0.2759
     23 C         144.8937  140.1988  163.9293 C.3     1  UNL1        0.0955
     24 C         145.6913  141.4689  163.9578 C.3     1  UNL1        0.0430
     25 C         144.4849  142.2157  164.4443 C.3     1  UNL1        0.0955
     26 C         140.9971  141.5892  161.9734 C.3     1  UNL1        0.0988
     27 N         140.6046  140.1470  161.8473 N.3     1  UNL1       -0.2917
     28 H         139.6068  140.1308  161.6367 H       1  UNL1        0.1236
     29 C         141.2762  139.2732  160.8298 C.3     1  UNL1        0.0960
     30 C         142.4038  138.3734  161.2411 C.3     1  UNL1        0.1029
     31 O         141.6402  137.3298  162.0013 O.3     1  UNL1       -0.3854
     32 C         143.7966  137.8361  161.3884 C.3     1  UNL1        0.0307
     33 C         143.5589  139.1046  160.6237 C.3     1  UNL1        0.0307
     34 H         140.6955  137.5496  161.9923 H       1  UNL1        0.2103
@<TRIPOS>BOND
     1    20    21    2
     2    21     1    1
     3     1     2   ar
     4     2    12    1
     5    12    13   ar
     6    13    14   ar
     7    14    15   ar
     8    15    16    1
     9    15    17   ar
    10    17    18   ar
    11     2     3   ar
    12     3     4   ar
    13     4     5   ar
    14     5     6   ar
    15     6     7   ar
    16     7     8    1
    17     7     9   ar
    18     9    26    1
    19    26    27    1
    20    27    29    1
    21    29    30    1
    22    30    31    1
    23    30    32    1
    24    32    33    1
    25     9    10   ar
    26    21    22   am
    27    22    23    1
    28    23    24    1
    29    24    25    1
    30    10     1   ar
    31    25    22    1
    32    18    12   ar
    33    10     4   ar
    34    33    30    1
    35    16    19    1
    36     8    11    1
    37    27    28    1
    38    31    34    1
@<TRIPOS>MOLECULE
*****
 34 38 0 0 0
SMALL
GASTEIGER

@<TRIPOS>ATOM
      1 C         140.9934  141.5818  165.3824 C.ar    1  UNL1        0.0908
      2 C         140.9341  142.0611  166.8025 C.ar    1  UNL1        0.1496
      3 O         140.0235  143.2520  166.8521 O.2     1  UNL1       -0.4534
      4 C         139.5201  143.5088  165.4626 C.ar    1  UNL1        0.1454
      5 C         138.5933  144.5492  164.9071 C.ar    1  UNL1        0.0406
      6 C         138.2659  144.5573  163.4433 C.ar    1  UNL1        0.0395
      7 C         138.8654  143.5250  162.5350 C.ar    1  UNL1        0.1311
      8 O         138.5380  143.5331  161.0711 O.3     1  UNL1       -0.5058
      9 C         139.7922  142.4846  163.0905 C.ar    1  UNL1        0.0305
     10 C         140.1195  142.4765  164.5543 C.ar    1  UNL1        0.0421
     11 H         137.9591  144.1830  160.7242 H       1  UNL1        0.2922
     12 C         141.6582  141.4557  167.9684 C.ar    1  UNL1        0.0349
     13 C         141.2600  140.1023  168.4779 C.ar    1  UNL1        0.0061
     14 C         141.9841  139.4969  169.6437 C.ar    1  UNL1        0.0367
     15 C         143.1064  140.2450  170.3001 C.ar    1  UNL1        0.1337
     16 O         143.8305  139.6396  171.4660 O.3     1  UNL1       -0.5055
     17 C         143.5045  141.5984  169.7906 C.ar    1  UNL1        0.0367
     18 C         142.7804  142.2038  168.6248 C.ar    1  UNL1        0.0061
     19 H         143.5817  138.7942  171.7842 H       1  UNL1        0.2922
     20 O         141.1165  139.0896  164.6587 O.2     1  UNL1       -0.2698
     21 C         141.7873  140.4130  164.8788 C.2     1  UNL1        0.2521
     22 N         143.2522  140.5676  164.5953 N.am    1  UNL1       -0.2759
     23 C         144.3382  139.6594  164.0993 C.3     1  UNL1        0.0955
     24 C         145.3237  140.7862  164.1943 C.3     1  UNL1        0.0430
     25 C         144.2378  141.6944  164.6903 C.3     1  UNL1        0.0955
     26 C         140.3917  141.4523  162.1822 C.3     1  UNL1        0.0988
     27 N         141.7373  141.6888  161.5630 N.3     1  UNL1       -0.2917
     28 H         141.7726  141.1273  160.7121 H       1  UNL1        0.1236
     29 C         142.1539  143.0785  161.1822 C.3     1  UNL1        0.0960
     30 C         143.2510  143.7665  161.9393 C.3     1  UNL1        0.1029
     31 O         144.4414  143.0312  161.3986 O.3     1  UNL1       -0.3854
     32 C         143.9346  144.7099  162.8842 C.3     1  UNL1        0.0307
     33 C         142.4415  144.7407  162.7428 C.3     1  UNL1        0.0307
     34 H         144.1468  142.3677  160.7553 H       1  UNL1        0.2103
@<TRIPOS>BOND
     1    20    21    2
     2    21     1    1
     3     1     2   ar
     4     2    12    1
     5    12    13   ar
     6    13    14   ar
     7    14    15   ar
     8    15    16    1
     9    15    17   ar
    10    17    18   ar
    11     2     3   ar
    12     3     4   ar
    13     4     5   ar
    14     5     6   ar
    15     6     7   ar
    16     7     8    1
    17     7     9   ar
    18     9    26    1
    19    26    27    1
    20    27    29    1
    21    29    30    1
    22    30    31    1
    23    30    32    1
    24    32    33    1
    25     9    10   ar
    26    21    22   am
    27    22    23    1
    28    23    24    1
    29    24    25    1
    30    10     1   ar
    31    25    22    1
    32    18    12   ar
    33    10     4   ar
    34    33    30    1
    35    16    19    1
    36     8    11    1
    37    27    28    1
    38    31    34    1
@<TRIPOS>MOLECULE
*****
 34 38 0 0 0
SMALL
GASTEIGER

@<TRIPOS>ATOM
      1 C         141.4279  142.0825  165.4109 C.ar    1  UNL1        0.0908
      2 C         141.1128  142.2873  166.8630 C.ar    1  UNL1        0.1496
      3 O         139.9931  143.2808  166.9586 O.2     1  UNL1       -0.4534
      4 C         139.6162  143.6900  165.5656 C.ar    1  UNL1        0.1454
      5 C         138.5801  144.6413  165.0446 C.ar    1  UNL1        0.0406
      6 C         138.4308  144.8520  163.5670 C.ar    1  UNL1        0.0395
      7 C         139.3176  144.1114  162.6105 C.ar    1  UNL1        0.1311
      8 O         139.1682  144.3221  161.1328 O.3     1  UNL1       -0.5058
      9 C         140.3537  143.1600  163.1315 C.ar    1  UNL1        0.0305
     10 C         140.5030  142.9494  164.6090 C.ar    1  UNL1        0.0421
     11 H         138.5210  144.9163  160.8074 H       1  UNL1        0.2922
     12 C         141.7972  141.6164  168.0169 C.ar    1  UNL1        0.0349
     13 C         142.8483  142.3506  168.7953 C.ar    1  UNL1        0.0061
     14 C         143.5327  141.6798  169.9492 C.ar    1  UNL1        0.0367
     15 C         143.1660  140.2746  170.3247 C.ar    1  UNL1        0.1337
     16 O         143.8504  139.6037  171.4786 O.3     1  UNL1       -0.5055
     17 C         142.1149  139.5404  169.5464 C.ar    1  UNL1        0.0367
     18 C         141.4305  140.2113  168.3924 C.ar    1  UNL1        0.0061
     19 H         144.5070  140.0624  171.9649 H       1  UNL1        0.2922
     20 O         143.8351  141.7154  164.5051 O.2     1  UNL1       -0.2698
     21 C         142.4828  141.1707  164.8577 C.2     1  UNL1        0.2521
     22 N         142.1852  139.7142  164.6570 N.am    1  UNL1       -0.2759
     23 C         142.9576  138.5346  164.1453 C.3     1  UNL1        0.0955
     24 C         141.7644  137.6546  164.3732 C.3     1  UNL1        0.0430
     25 C         140.9920  138.8342  164.8849 C.3     1  UNL1        0.0955
     26 C         141.2404  142.4194  162.1749 C.3     1  UNL1        0.0988
     27 N         142.3244  143.1493  161.4385 N.3     1  UNL1       -0.2917
     28 H         143.2071  142.7144  161.7070 H       1  UNL1        0.1236
     29 C         142.3070  143.2042  159.9396 C.3     1  UNL1        0.0960
     30 C         141.8249  144.4403  159.2399 C.3     1  UNL1        0.1029
     31 O         141.8198  145.4048  160.3888 O.3     1  UNL1       -0.3854
     32 C         141.3446  145.3415  158.1411 C.3     1  UNL1        0.0307
     33 C         141.6626  143.9051  157.8480 C.3     1  UNL1        0.0307
     34 H         142.1166  144.9511  161.1931 H       1  UNL1        0.2103
@<TRIPOS>BOND
     1    20    21    2
     2    21     1    1
     3     1     2   ar
     4     2    12    1
     5    12    13   ar
     6    13    14   ar
     7    14    15   ar
     8    15    16    1
     9    15    17   ar
    10    17    18   ar
    11     2     3   ar
    12     3     4   ar
    13     4     5   ar
    14     5     6   ar
    15     6     7   ar
    16     7     8    1
    17     7     9   ar
    18     9    26    1
    19    26    27    1
    20    27    29    1
    21    29    30    1
    22    30    31    1
    23    30    32    1
    24    32    33    1
    25     9    10   ar
    26    21    22   am
    27    22    23    1
    28    23    24    1
    29    24    25    1
    30    10     1   ar
    31    25    22    1
    32    18    12   ar
    33    10     4   ar
    34    33    30    1
    35    16    19    1
    36     8    11    1
    37    27    28    1
    38    31    34    1
@<TRIPOS>MOLECULE
*****
 34 38 0 0 0
SMALL
GASTEIGER

@<TRIPOS>ATOM
      1 C         141.5474  143.0472  165.1980 C.ar    1  UNL1        0.0908
      2 C         140.3956  143.0014  166.1579 C.ar    1  UNL1        0.1496
      3 O         139.2671  143.7925  165.5658 O.2     1  UNL1       -0.4534
      4 C         139.7214  144.3273  164.2401 C.ar    1  UNL1        0.1454
      5 C         139.0338  145.1741  163.2105 C.ar    1  UNL1        0.0406
      6 C         139.7556  145.5604  161.9536 C.ar    1  UNL1        0.0395
      7 C         141.1649  145.0997  161.7263 C.ar    1  UNL1        0.1311
      8 O         141.8867  145.4860  160.4693 O.3     1  UNL1       -0.5058
      9 C         141.8524  144.2528  162.7558 C.ar    1  UNL1        0.0305
     10 C         141.1307  143.8666  164.0127 C.ar    1  UNL1        0.0421
     11 H         141.4572  146.0150  159.8261 H       1  UNL1        0.2922
     12 C         140.3759  142.2894  167.4780 C.ar    1  UNL1        0.0349
     13 C         140.5373  143.0657  168.7513 C.ar    1  UNL1        0.0061
     14 C         140.5175  142.3538  170.0714 C.ar    1  UNL1        0.0367
     15 C         140.3364  140.8655  170.1183 C.ar    1  UNL1        0.1337
     16 O         140.3166  140.1536  171.4384 O.3     1  UNL1       -0.5055
     17 C         140.1750  140.0892  168.8450 C.ar    1  UNL1        0.0367
     18 C         140.1947  140.8012  167.5249 C.ar    1  UNL1        0.0061
     19 H         140.4174  140.6385  172.2338 H       1  UNL1        0.2922
     20 O         143.9147  143.0299  166.2683 O.2     1  UNL1       -0.2698
     21 C         142.8816  142.3891  165.3897 C.2     1  UNL1        0.2521
     22 N         143.1827  141.0900  164.7028 N.am    1  UNL1       -0.2759
     23 C         144.3621  140.1644  164.6540 C.3     1  UNL1        0.0955
     24 C         143.6085  139.2529  163.7314 C.3     1  UNL1        0.0430
     25 C         142.4292  140.1784  163.7801 C.3     1  UNL1        0.0955
     26 C         143.2617  143.7922  162.5285 C.3     1  UNL1        0.0988
     27 N         143.7075  143.3924  161.1532 N.3     1  UNL1       -0.2917
     28 H         144.7269  143.4269  161.1524 H       1  UNL1        0.1236
     29 C         143.3191  142.0540  160.5984 C.3     1  UNL1        0.0960
     30 C         142.1378  141.9363  159.6814 C.3     1  UNL1        0.1029
     31 O         142.3139  143.1845  158.8683 O.3     1  UNL1       -0.3854
     32 C         140.8954  141.3852  159.0469 C.3     1  UNL1        0.0307
     33 C         141.5515  140.6474  160.1762 C.3     1  UNL1        0.0307
     34 H         143.1021  143.6605  159.1732 H       1  UNL1        0.2103
@<TRIPOS>BOND
     1    20    21    2
     2    21     1    1
     3     1     2   ar
     4     2    12    1
     5    12    13   ar
     6    13    14   ar
     7    14    15   ar
     8    15    16    1
     9    15    17   ar
    10    17    18   ar
    11     2     3   ar
    12     3     4   ar
    13     4     5   ar
    14     5     6   ar
    15     6     7   ar
    16     7     8    1
    17     7     9   ar
    18     9    26    1
    19    26    27    1
    20    27    29    1
    21    29    30    1
    22    30    31    1
    23    30    32    1
    24    32    33    1
    25     9    10   ar
    26    21    22   am
    27    22    23    1
    28    23    24    1
    29    24    25    1
    30    10     1   ar
    31    25    22    1
    32    18    12   ar
    33    10     4   ar
    34    33    30    1
    35    16    19    1
    36     8    11    1
    37    27    28    1
    38    31    34    1
@<TRIPOS>MOLECULE
*****
 34 38 0 0 0
SMALL
GASTEIGER

@<TRIPOS>ATOM
      1 C         140.3711  141.3975  165.5838 C.ar    1  UNL1        0.0908
      2 C         140.6569  142.0452  166.9062 C.ar    1  UNL1        0.1496
      3 O         140.0057  143.3965  166.9108 O.2     1  UNL1       -0.4534
      4 C         139.3174  143.5839  165.5912 C.ar    1  UNL1        0.1454
      5 C         138.5142  144.7198  165.0305 C.ar    1  UNL1        0.0406
      6 C         137.9368  144.6203  163.6497 C.ar    1  UNL1        0.0395
      7 C         138.1627  143.3848  162.8296 C.ar    1  UNL1        0.1311
      8 O         137.5853  143.2853  161.4487 O.3     1  UNL1       -0.5058
      9 C         138.9659  142.2489  163.3903 C.ar    1  UNL1        0.0305
     10 C         139.5432  142.3484  164.7711 C.ar    1  UNL1        0.0421
     11 H         137.0835  143.9950  161.0984 H       1  UNL1        0.2922
     12 C         141.4540  141.4468  168.0272 C.ar    1  UNL1        0.0349
     13 C         142.6299  142.1884  168.5905 C.ar    1  UNL1        0.0061
     14 C         143.4270  141.5899  169.7114 C.ar    1  UNL1        0.0367
     15 C         143.0481  140.2500  170.2691 C.ar    1  UNL1        0.1337
     16 O         143.8452  139.6516  171.3901 O.3     1  UNL1       -0.5055
     17 C         141.8722  139.5085  169.7058 C.ar    1  UNL1        0.0367
     18 C         141.0752  140.1069  168.5848 C.ar    1  UNL1        0.0061
     19 H         144.5798  140.1148  171.7419 H       1  UNL1        0.2922
     20 O         142.2224  139.8510  164.6190 O.2     1  UNL1       -0.2698
     21 C         140.8322  140.0376  165.1502 C.2     1  UNL1        0.2521
     22 N         139.9028  138.8641  165.2478 N.am    1  UNL1       -0.2759
     23 C         140.0016  137.4030  164.9230 C.3     1  UNL1        0.0955
     24 C         138.5887  137.2047  165.3859 C.3     1  UNL1        0.0430
     25 C         138.4899  138.6657  165.7107 C.3     1  UNL1        0.0955
     26 C         139.1917  141.0134  162.5702 C.3     1  UNL1        0.0988
     27 N         139.8495  141.1153  161.2260 N.3     1  UNL1       -0.2917
     28 H         140.8160  140.8130  161.3475 H       1  UNL1        0.1236
     29 C         139.2987  140.3472  160.0612 C.3     1  UNL1        0.0960
     30 C         138.6916  141.0781  158.9005 C.3     1  UNL1        0.1029
     31 O         137.6194  140.1041  158.5112 O.3     1  UNL1       -0.3854
     32 C         138.4570  142.1474  157.8749 C.3     1  UNL1        0.0307
     33 C         139.5531  142.3060  158.8866 C.3     1  UNL1        0.0307
     34 H         137.6487  139.3369  159.1041 H       1  UNL1        0.2103
@<TRIPOS>BOND
     1    20    21    2
     2    21     1    1
     3     1     2   ar
     4     2    12    1
     5    12    13   ar
     6    13    14   ar
     7    14    15   ar
     8    15    16    1
     9    15    17   ar
    10    17    18   ar
    11     2     3   ar
    12     3     4   ar
    13     4     5   ar
    14     5     6   ar
    15     6     7   ar
    16     7     8    1
    17     7     9   ar
    18     9    26    1
    19    26    27    1
    20    27    29    1
    21    29    30    1
    22    30    31    1
    23    30    32    1
    24    32    33    1
    25     9    10   ar
    26    21    22   am
    27    22    23    1
    28    23    24    1
    29    24    25    1
    30    10     1   ar
    31    25    22    1
    32    18    12   ar
    33    10     4   ar
    34    33    30    1
    35    16    19    1
    36     8    11    1
    37    27    28    1
    38    31    34    1
