@<TRIPOS>MOLECULE
*****
 34 37 0 0 0
SMALL
GASTEIGER

@<TRIPOS>ATOM
      1 N         144.9640  142.9501  162.1533 N.3     1  UNL1       -0.2935
      2 H         144.8464  142.3301  161.3519 H       1  UNL1        0.1236
      3 C         145.5120  142.1135  163.2712 C.3     1  UNL1        0.0956
      4 C         142.7199  140.2809  166.2872 C.ar    1  UNL1        0.0001
      5 C         143.0548  141.7409  166.3653 C.ar    1  UNL1       -0.0003
      6 C         143.9855  142.3519  165.3600 C.ar    1  UNL1       -0.0029
      7 C         144.5813  141.5027  164.2765 C.ar    1  UNL1       -0.0064
      8 C         144.2464  140.0426  164.1984 C.ar    1  UNL1       -0.0029
      9 C         143.3157  139.4317  165.2037 C.ar    1  UNL1       -0.0003
     10 C         141.0446  140.5471  168.2549 C.2     1  UNL1        0.0598
     11 C         141.7892  139.6700  167.2925 C.2     1  UNL1        0.0047
     12 O         138.6919  139.6420  168.8840 O.2     1  UNL1       -0.2681
     13 C         140.1138  139.9363  169.2603 C.2     1  UNL1        0.2679
     14 N         140.6049  139.6198  170.6418 N.am    1  UNL1       -0.1934
     15 O         139.6742  139.0091  171.6471 O.3     1  UNL1       -0.2949
     16 H         141.5382  139.8130  170.8887 H       1  UNL1        0.1825
     17 H         138.8001  138.8852  171.2451 H       1  UNL1        0.2414
     18 C         143.6658  143.6804  162.3300 C.3     1  UNL1        0.0736
     19 C         142.4339  143.2030  161.6195 C.3     1  UNL1        0.0465
     20 C         141.8662  141.8496  161.9297 C.ar    1  UNL1        0.0162
     21 C         140.6917  141.5691  162.8195 C.ar    1  UNL1        0.0988
     22 N         140.4730  140.0853  162.8443 N.ar    1  UNL1       -0.1654
     23 N         141.5124  139.4489  161.9698 N.ar    1  UNL1       -0.2285
     24 C         141.7860  138.0173  161.6152 C.ar    1  UNL1        0.1004
     25 C         142.9207  137.6762  160.6954 C.ar    1  UNL1        0.0207
     26 C         143.7817  138.7667  160.1301 C.ar    1  UNL1        0.0031
     27 C         143.5081  140.1982  160.4847 C.ar    1  UNL1        0.0189
     28 C         142.3735  140.5393  161.4046 C.ar    1  UNL1        0.0804
     29 C         139.8786  142.5925  163.5553 C.ar    1  UNL1        0.0191
     30 C         140.2506  142.9805  164.9557 C.ar    1  UNL1        0.0015
     31 C         139.4375  144.0039  165.6915 C.ar    1  UNL1        0.0000
     32 C         138.2525  144.6394  165.0270 C.ar    1  UNL1        0.0000
     33 C         137.8804  144.2515  163.6266 C.ar    1  UNL1        0.0000
     34 C         138.6935  143.2280  162.8908 C.ar    1  UNL1        0.0015
@<TRIPOS>BOND
     1    12    13    2
     2    13    10    1
     3    10    11    2
     4    11     4    1
     5     4     5   ar
     6     5     6   ar
     7     6     7   ar
     8     7     3    1
     9     3     1    1
    10     1    18    1
    11    18    19    1
    12    19    20    1
    13    20    21   ar
    14    21    29    1
    15    29    30   ar
    16    30    31   ar
    17    31    32   ar
    18    32    33   ar
    19    33    34   ar
    20    21    22   ar
    21    22    23   ar
    22    23    24   ar
    23    24    25   ar
    24    25    26   ar
    25    26    27   ar
    26    27    28   ar
    27     7     8   ar
    28     8     9   ar
    29    13    14   am
    30    14    15    1
    31     9     4   ar
    32    28    20   ar
    33    34    29   ar
    34    28    23   ar
    35     1     2    1
    36    14    16    1
    37    15    17    1
@<TRIPOS>MOLECULE
*****
 34 37 0 0 0
SMALL
GASTEIGER

@<TRIPOS>ATOM
      1 N         137.1920  140.8045  162.3367 N.3     1  UNL1       -0.2935
      2 H         136.2139  140.8796  162.0571 H       1  UNL1        0.1236
      3 C         137.3934  141.7659  163.4703 C.3     1  UNL1        0.0956
      4 C         140.0291  140.6351  166.9380 C.ar    1  UNL1        0.0001
      5 C         140.1813  141.9777  166.2867 C.ar    1  UNL1       -0.0003
      6 C         139.3028  142.3547  165.1308 C.ar    1  UNL1       -0.0029
      7 C         138.2719  141.3890  164.6262 C.ar    1  UNL1       -0.0064
      8 C         138.1196  140.0463  165.2774 C.ar    1  UNL1       -0.0029
      9 C         138.9982  139.6694  166.4333 C.ar    1  UNL1       -0.0003
     10 C         141.0359  141.1800  169.2701 C.2     1  UNL1        0.0598
     11 C         140.9076  140.2582  168.0938 C.2     1  UNL1        0.0047
     12 O         141.6669  141.3972  171.7810 O.2     1  UNL1       -0.2681
     13 C         141.9144  140.8032  170.4261 C.2     1  UNL1        0.2679
     14 N         143.0405  139.8324  170.2271 N.am    1  UNL1       -0.1934
     15 O         143.9190  139.4557  171.3831 O.3     1  UNL1       -0.2949
     16 H         143.2029  139.4425  169.3379 H       1  UNL1        0.1825
     17 H         143.6248  139.9253  172.1793 H       1  UNL1        0.2414
     18 C         138.0110  140.9365  161.0870 C.3     1  UNL1        0.0736
     19 C         139.3043  140.1881  160.9553 C.3     1  UNL1        0.0465
     20 C         140.4113  140.4246  161.9395 C.ar    1  UNL1        0.0162
     21 C         141.2245  141.6785  162.0673 C.ar    1  UNL1        0.0988
     22 N         142.2151  141.4775  163.1756 N.ar    1  UNL1       -0.1654
     23 N         142.0141  140.0995  163.7328 N.ar    1  UNL1       -0.2285
     24 C         142.7021  139.3531  164.8371 C.ar    1  UNL1        0.1004
     25 C         142.2753  137.9560  165.1775 C.ar    1  UNL1        0.0207
     26 C         141.1604  137.3053  164.4135 C.ar    1  UNL1        0.0031
     27 C         140.4724  138.0516  163.3092 C.ar    1  UNL1        0.0189
     28 C         140.8992  139.4487  162.9689 C.ar    1  UNL1        0.0804
     29 C         141.0737  142.9161  161.2332 C.ar    1  UNL1        0.0191
     30 C         140.3696  144.1164  161.7927 C.ar    1  UNL1        0.0015
     31 C         140.2187  145.3540  160.9586 C.ar    1  UNL1        0.0000
     32 C         140.7721  145.3912  159.5650 C.ar    1  UNL1        0.0000
     33 C         141.4763  144.1908  159.0054 C.ar    1  UNL1        0.0000
     34 C         141.6271  142.9532  159.8395 C.ar    1  UNL1        0.0015
@<TRIPOS>BOND
     1    12    13    2
     2    13    10    1
     3    10    11    2
     4    11     4    1
     5     4     5   ar
     6     5     6   ar
     7     6     7   ar
     8     7     3    1
     9     3     1    1
    10     1    18    1
    11    18    19    1
    12    19    20    1
    13    20    21   ar
    14    21    29    1
    15    29    30   ar
    16    30    31   ar
    17    31    32   ar
    18    32    33   ar
    19    33    34   ar
    20    21    22   ar
    21    22    23   ar
    22    23    24   ar
    23    24    25   ar
    24    25    26   ar
    25    26    27   ar
    26    27    28   ar
    27     7     8   ar
    28     8     9   ar
    29    13    14   am
    30    14    15    1
    31     9     4   ar
    32    28    20   ar
    33    34    29   ar
    34    28    23   ar
    35     1     2    1
    36    14    16    1
    37    15    17    1
@<TRIPOS>MOLECULE
*****
 34 37 0 0 0
SMALL
GASTEIGER

@<TRIPOS>ATOM
      1 N         139.7467  140.0385  160.7584 N.3     1  UNL1       -0.2935
      2 H         139.6450  141.0177  161.0254 H       1  UNL1        0.1236
      3 C         138.6774  139.2781  161.4852 C.3     1  UNL1        0.0956
      4 C         138.5854  139.2699  165.9843 C.ar    1  UNL1        0.0001
      5 C         138.8803  138.0027  165.2378 C.ar    1  UNL1       -0.0003
      6 C         138.9110  138.0054  163.7381 C.ar    1  UNL1       -0.0029
      7 C         138.6467  139.2753  162.9849 C.ar    1  UNL1       -0.0064
      8 C         138.3518  140.5426  163.7314 C.ar    1  UNL1       -0.0029
      9 C         138.3211  140.5399  165.2311 C.ar    1  UNL1       -0.0003
     10 C         139.4385  140.2032  168.2539 C.2     1  UNL1        0.0598
     11 C         138.5547  139.2672  167.4840 C.2     1  UNL1        0.0047
     12 O         138.1356  139.8722  170.4771 O.2     1  UNL1       -0.2681
     13 C         139.4079  140.2005  169.7536 C.2     1  UNL1        0.2679
     14 N         140.6494  140.5261  170.5297 N.am    1  UNL1       -0.1934
     15 O         140.6187  140.5234  172.0294 O.3     1  UNL1       -0.2949
     16 H         141.4845  140.7416  170.0549 H       1  UNL1        0.1825
     17 H         139.7272  140.2926  172.3342 H       1  UNL1        0.2414
     18 C         141.1896  139.6821  160.9608 C.3     1  UNL1        0.0736
     19 C         142.1487  140.7079  161.4884 C.3     1  UNL1        0.0465
     20 C         141.6411  141.8593  162.3049 C.ar    1  UNL1        0.0162
     21 C         141.5899  141.9232  163.8027 C.ar    1  UNL1        0.0988
     22 N         141.0128  143.2523  164.1904 N.ar    1  UNL1       -0.1654
     23 N         140.7072  144.0098  162.9323 N.ar    1  UNL1       -0.2285
     24 C         140.1256  145.3723  162.6972 C.ar    1  UNL1        0.1004
     25 C         139.9323  145.8738  161.2969 C.ar    1  UNL1        0.0207
     26 C         140.3206  145.0129  160.1316 C.ar    1  UNL1        0.0031
     27 C         140.9022  143.6504  160.3666 C.ar    1  UNL1        0.0189
     28 C         141.0956  143.1489  161.7670 C.ar    1  UNL1        0.0804
     29 C         142.0374  140.8470  164.7469 C.ar    1  UNL1        0.0191
     30 C         142.1585  139.4310  164.2671 C.ar    1  UNL1        0.0015
     31 C         142.6060  138.3548  165.2113 C.ar    1  UNL1        0.0000
     32 C         142.9322  138.6946  166.6354 C.ar    1  UNL1        0.0000
     33 C         142.8110  140.1105  167.1153 C.ar    1  UNL1        0.0000
     34 C         142.3636  141.1867  166.1710 C.ar    1  UNL1        0.0015
@<TRIPOS>BOND
     1    12    13    2
     2    13    10    1
     3    10    11    2
     4    11     4    1
     5     4     5   ar
     6     5     6   ar
     7     6     7   ar
     8     7     3    1
     9     3     1    1
    10     1    18    1
    11    18    19    1
    12    19    20    1
    13    20    21   ar
    14    21    29    1
    15    29    30   ar
    16    30    31   ar
    17    31    32   ar
    18    32    33   ar
    19    33    34   ar
    20    21    22   ar
    21    22    23   ar
    22    23    24   ar
    23    24    25   ar
    24    25    26   ar
    25    26    27   ar
    26    27    28   ar
    27     7     8   ar
    28     8     9   ar
    29    13    14   am
    30    14    15    1
    31     9     4   ar
    32    28    20   ar
    33    34    29   ar
    34    28    23   ar
    35     1     2    1
    36    14    16    1
    37    15    17    1
@<TRIPOS>MOLECULE
*****
 34 37 0 0 0
SMALL
GASTEIGER

@<TRIPOS>ATOM
      1 N         138.7813  137.8944  162.9625 N.3     1  UNL1       -0.2935
      2 H         138.3342  137.1356  162.4481 H       1  UNL1        0.1236
      3 C         138.7467  137.5135  164.4129 C.3     1  UNL1        0.0956
      4 C         140.6606  140.1852  167.4870 C.ar    1  UNL1        0.0001
      5 C         141.4915  139.5896  166.3893 C.ar    1  UNL1       -0.0003
      6 C         140.8535  138.6990  165.3646 C.ar    1  UNL1       -0.0029
      7 C         139.3847  138.4041  165.4376 C.ar    1  UNL1       -0.0064
      8 C         138.5537  138.9997  166.5353 C.ar    1  UNL1       -0.0029
      9 C         139.1917  139.8902  167.5600 C.ar    1  UNL1       -0.0003
     10 C         140.7663  142.4596  168.7381 C.2     1  UNL1        0.0598
     11 C         141.2986  141.0757  168.5117 C.2     1  UNL1        0.0047
     12 O         140.6206  144.4759  170.3700 O.2     1  UNL1       -0.2681
     13 C         141.4042  143.3502  169.7628 C.2     1  UNL1        0.2679
     14 N         142.8257  143.1152  170.1802 N.am    1  UNL1       -0.1934
     15 O         143.4635  144.0058  171.2048 O.3     1  UNL1       -0.2949
     16 H         143.3400  142.3763  169.7816 H       1  UNL1        0.1825
     17 H         142.8248  144.6768  171.4925 H       1  UNL1        0.2414
     18 C         138.1334  139.1679  162.5059 C.3     1  UNL1        0.0736
     19 C         138.9345  140.1894  161.7542 C.3     1  UNL1        0.0465
     20 C         140.3797  140.4063  162.0925 C.ar    1  UNL1        0.0162
     21 C         140.9317  141.5233  162.9277 C.ar    1  UNL1        0.0988
     22 N         142.4197  141.3516  163.0063 N.ar    1  UNL1       -0.1654
     23 N         142.7875  140.1285  162.2197 N.ar    1  UNL1       -0.2285
     24 C         144.1074  139.4713  161.9447 C.ar    1  UNL1        0.1004
     25 C         144.1666  138.2298  161.1050 C.ar    1  UNL1        0.0207
     26 C         142.9058  137.6456  160.5402 C.ar    1  UNL1        0.0031
     27 C         141.5858  138.3028  160.8152 C.ar    1  UNL1        0.0189
     28 C         141.5266  139.5443  161.6549 C.ar    1  UNL1        0.0804
     29 C         140.1354  142.6196  163.5713 C.ar    1  UNL1        0.0191
     30 C         139.3461  143.5711  162.7219 C.ar    1  UNL1        0.0015
     31 C         138.5498  144.6674  163.3655 C.ar    1  UNL1        0.0000
     32 C         138.5429  144.8120  164.8585 C.ar    1  UNL1        0.0000
     33 C         139.3322  143.8605  165.7079 C.ar    1  UNL1        0.0000
     34 C         140.1285  142.7643  165.0643 C.ar    1  UNL1        0.0015
@<TRIPOS>BOND
     1    12    13    2
     2    13    10    1
     3    10    11    2
     4    11     4    1
     5     4     5   ar
     6     5     6   ar
     7     6     7   ar
     8     7     3    1
     9     3     1    1
    10     1    18    1
    11    18    19    1
    12    19    20    1
    13    20    21   ar
    14    21    29    1
    15    29    30   ar
    16    30    31   ar
    17    31    32   ar
    18    32    33   ar
    19    33    34   ar
    20    21    22   ar
    21    22    23   ar
    22    23    24   ar
    23    24    25   ar
    24    25    26   ar
    25    26    27   ar
    26    27    28   ar
    27     7     8   ar
    28     8     9   ar
    29    13    14   am
    30    14    15    1
    31     9     4   ar
    32    28    20   ar
    33    34    29   ar
    34    28    23   ar
    35     1     2    1
    36    14    16    1
    37    15    17    1
@<TRIPOS>MOLECULE
*****
 34 37 0 0 0
SMALL
GASTEIGER

@<TRIPOS>ATOM
      1 N         138.8460  137.9480  162.6207 N.3     1  UNL1       -0.2935
      2 H         138.5865  137.0995  162.1175 H       1  UNL1        0.1236
      3 C         138.8983  137.5893  164.0762 C.3     1  UNL1        0.0956
      4 C         140.7240  140.4480  167.0335 C.ar    1  UNL1        0.0001
      5 C         139.2462  140.4757  166.7777 C.ar    1  UNL1       -0.0003
      6 C         138.6376  139.5228  165.7919 C.ar    1  UNL1       -0.0029
      7 C         139.5068  138.5422  165.0620 C.ar    1  UNL1       -0.0064
      8 C         140.9847  138.5145  165.3179 C.ar    1  UNL1       -0.0029
      9 C         141.5932  139.4674  166.3036 C.ar    1  UNL1       -0.0003
     10 C         140.4856  142.4615  168.6579 C.2     1  UNL1        0.0598
     11 C         141.3325  141.4009  168.0193 C.2     1  UNL1        0.0047
     12 O         140.2842  144.5578  170.1794 O.2     1  UNL1       -0.2681
     13 C         141.0940  143.4145  169.6437 C.2     1  UNL1        0.2679
     14 N         142.5122  143.2242  170.0937 N.am    1  UNL1       -0.1934
     15 O         143.1205  144.1772  171.0795 O.3     1  UNL1       -0.2949
     16 H         143.0437  142.4738  169.7421 H       1  UNL1        0.1825
     17 H         142.4674  144.8520  171.3221 H       1  UNL1        0.2414
     18 C         137.9224  139.0313  162.1481 C.3     1  UNL1        0.0736
     19 C         138.4834  140.3270  161.6414 C.3     1  UNL1        0.0465
     20 C         139.4487  141.1069  162.4840 C.ar    1  UNL1        0.0162
     21 C         140.9336  140.9029  162.5411 C.ar    1  UNL1        0.0988
     22 N         141.5012  141.8977  163.5099 N.ar    1  UNL1       -0.1654
     23 N         140.3670  142.7164  164.0515 N.ar    1  UNL1       -0.2285
     24 C         140.3254  143.8437  165.0400 C.ar    1  UNL1        0.1004
     25 C         139.0153  144.4824  165.3946 C.ar    1  UNL1        0.0207
     26 C         137.7468  143.9936  164.7605 C.ar    1  UNL1        0.0031
     27 C         137.7883  142.8663  163.7720 C.ar    1  UNL1        0.0189
     28 C         139.0984  142.2276  163.4174 C.ar    1  UNL1        0.0804
     29 C         141.7141  139.8833  161.7657 C.ar    1  UNL1        0.0191
     30 C         142.7672  139.0645  162.4515 C.ar    1  UNL1        0.0015
     31 C         143.5476  138.0449  161.6760 C.ar    1  UNL1        0.0000
     32 C         143.2749  137.8441  160.2148 C.ar    1  UNL1        0.0000
     33 C         142.2217  138.6629  159.5290 C.ar    1  UNL1        0.0000
     34 C         141.4413  139.6826  160.3044 C.ar    1  UNL1        0.0015
@<TRIPOS>BOND
     1    12    13    2
     2    13    10    1
     3    10    11    2
     4    11     4    1
     5     4     5   ar
     6     5     6   ar
     7     6     7   ar
     8     7     3    1
     9     3     1    1
    10     1    18    1
    11    18    19    1
    12    19    20    1
    13    20    21   ar
    14    21    29    1
    15    29    30   ar
    16    30    31   ar
    17    31    32   ar
    18    32    33   ar
    19    33    34   ar
    20    21    22   ar
    21    22    23   ar
    22    23    24   ar
    23    24    25   ar
    24    25    26   ar
    25    26    27   ar
    26    27    28   ar
    27     7     8   ar
    28     8     9   ar
    29    13    14   am
    30    14    15    1
    31     9     4   ar
    32    28    20   ar
    33    34    29   ar
    34    28    23   ar
    35     1     2    1
    36    14    16    1
    37    15    17    1
@<TRIPOS>MOLECULE
*****
 34 37 0 0 0
SMALL
GASTEIGER

@<TRIPOS>ATOM
      1 N         139.7508  139.0648  160.7208 N.3     1  UNL1       -0.2935
      2 H         139.5370  139.9359  160.2351 H       1  UNL1        0.1236
      3 C         138.5325  138.7030  161.5176 C.3     1  UNL1        0.0956
      4 C         138.5919  139.0548  166.0034 C.ar    1  UNL1        0.0001
      5 C         138.2173  140.2395  165.1631 C.ar    1  UNL1       -0.0003
      6 C         138.1975  140.1223  163.6678 C.ar    1  UNL1       -0.0029
      7 C         138.5523  138.8203  163.0128 C.ar    1  UNL1       -0.0064
      8 C         138.9269  137.6356  163.8532 C.ar    1  UNL1       -0.0029
      9 C         138.9466  137.7528  165.3485 C.ar    1  UNL1       -0.0003
     10 C         139.3624  140.2938  168.1531 C.2     1  UNL1        0.0598
     11 C         138.6116  139.1721  167.4987 C.2     1  UNL1        0.0047
     12 O         138.2485  139.8568  170.4592 O.2     1  UNL1       -0.2681
     13 C         139.3822  140.4111  169.6484 C.2     1  UNL1        0.2679
     14 N         140.5357  141.0828  170.3328 N.am    1  UNL1       -0.1934
     15 O         140.5554  141.2001  171.8281 O.3     1  UNL1       -0.2949
     16 H         141.2797  141.4466  169.8006 H       1  UNL1        0.1825
     17 H         139.7546  140.7939  172.1949 H       1  UNL1        0.2414
     18 C         141.0666  139.2661  161.4123 C.3     1  UNL1        0.0736
     19 C         141.5247  140.6505  161.7644 C.3     1  UNL1        0.0465
     20 C         141.6530  141.0548  163.2032 C.ar    1  UNL1        0.0162
     21 C         141.3330  142.4056  163.7713 C.ar    1  UNL1        0.0988
     22 N         141.6061  142.3648  165.2457 N.ar    1  UNL1       -0.1654
     23 N         142.0948  140.9888  165.5888 N.ar    1  UNL1       -0.2285
     24 C         142.5172  140.3685  166.8875 C.ar    1  UNL1        0.1004
     25 C         142.9686  138.9386  166.9239 C.ar    1  UNL1        0.0207
     26 C         142.9976  138.1289  165.6615 C.ar    1  UNL1        0.0031
     27 C         142.5752  138.7492  164.3628 C.ar    1  UNL1        0.0189
     28 C         142.1238  140.1791  164.3264 C.ar    1  UNL1        0.0804
     29 C         140.8285  143.5894  163.0005 C.ar    1  UNL1        0.0191
     30 C         139.4753  144.1608  163.3042 C.ar    1  UNL1        0.0015
     31 C         138.9708  145.3445  162.5333 C.ar    1  UNL1        0.0000
     32 C         139.8195  145.9569  161.4588 C.ar    1  UNL1        0.0000
     33 C         141.1727  145.3854  161.1551 C.ar    1  UNL1        0.0000
     34 C         141.6772  144.2017  161.9259 C.ar    1  UNL1        0.0015
@<TRIPOS>BOND
     1    12    13    2
     2    13    10    1
     3    10    11    2
     4    11     4    1
     5     4     5   ar
     6     5     6   ar
     7     6     7   ar
     8     7     3    1
     9     3     1    1
    10     1    18    1
    11    18    19    1
    12    19    20    1
    13    20    21   ar
    14    21    29    1
    15    29    30   ar
    16    30    31   ar
    17    31    32   ar
    18    32    33   ar
    19    33    34   ar
    20    21    22   ar
    21    22    23   ar
    22    23    24   ar
    23    24    25   ar
    24    25    26   ar
    25    26    27   ar
    26    27    28   ar
    27     7     8   ar
    28     8     9   ar
    29    13    14   am
    30    14    15    1
    31     9     4   ar
    32    28    20   ar
    33    34    29   ar
    34    28    23   ar
    35     1     2    1
    36    14    16    1
    37    15    17    1
@<TRIPOS>MOLECULE
*****
 34 37 0 0 0
SMALL
GASTEIGER

@<TRIPOS>ATOM
      1 N         144.3210  138.9459  162.5141 N.3     1  UNL1       -0.2935
      2 H         145.0600  138.3753  162.1033 H       1  UNL1        0.1236
      3 C         144.8509  139.4688  163.8163 C.3     1  UNL1        0.0956
      4 C         142.0079  140.5236  167.1412 C.ar    1  UNL1        0.0001
      5 C         142.5253  139.1215  167.0133 C.ar    1  UNL1       -0.0003
      6 C         143.4730  138.7698  165.9050 C.ar    1  UNL1       -0.0029
      7 C         143.9033  139.8203  164.9246 C.ar    1  UNL1       -0.0064
      8 C         143.3859  141.2225  165.0525 C.ar    1  UNL1       -0.0029
      9 C         142.4382  141.5741  166.1608 C.ar    1  UNL1       -0.0003
     10 C         141.5550  141.6285  169.4485 C.2     1  UNL1        0.0598
     11 C         141.0602  140.8751  168.2495 C.2     1  UNL1        0.0047
     12 O         140.4913  141.0866  171.7560 O.2     1  UNL1       -0.2681
     13 C         140.6074  141.9801  170.5569 C.2     1  UNL1        0.2679
     14 N         139.7758  143.2252  170.4661 N.am    1  UNL1       -0.1934
     15 O         138.8283  143.5768  171.5745 O.3     1  UNL1       -0.2949
     16 H         139.8520  143.8117  169.6790 H       1  UNL1        0.1825
     17 H         138.8759  142.8997  172.2675 H       1  UNL1        0.2414
     18 C         143.0709  138.1172  162.4917 C.3     1  UNL1        0.0736
     19 C         141.8151  138.6704  161.8859 C.3     1  UNL1        0.0465
     20 C         140.9848  139.6577  162.6513 C.ar    1  UNL1        0.0162
     21 C         140.8802  141.1273  162.3699 C.ar    1  UNL1        0.0988
     22 N         139.9442  141.7266  163.3773 N.ar    1  UNL1       -0.1654
     23 N         139.4703  140.6273  164.2812 N.ar    1  UNL1       -0.2285
     24 C         138.5363  140.6255  165.4549 C.ar    1  UNL1        0.1004
     25 C         138.2455  139.3450  166.1799 C.ar    1  UNL1        0.0207
     26 C         138.8887  138.0663  165.7312 C.ar    1  UNL1        0.0031
     27 C         139.8227  138.0682  164.5576 C.ar    1  UNL1        0.0189
     28 C         140.1135  139.3487  163.8325 C.ar    1  UNL1        0.0804
     29 C         141.5874  141.8677  161.2737 C.ar    1  UNL1        0.0191
     30 C         140.8031  142.4537  160.1373 C.ar    1  UNL1        0.0015
     31 C         141.5103  143.1941  159.0410 C.ar    1  UNL1        0.0000
     32 C         143.0017  143.3485  159.0812 C.ar    1  UNL1        0.0000
     33 C         143.7860  142.7625  160.2176 C.ar    1  UNL1        0.0000
     34 C         143.0788  142.0221  161.3138 C.ar    1  UNL1        0.0015
@<TRIPOS>BOND
     1    12    13    2
     2    13    10    1
     3    10    11    2
     4    11     4    1
     5     4     5   ar
     6     5     6   ar
     7     6     7   ar
     8     7     3    1
     9     3     1    1
    10     1    18    1
    11    18    19    1
    12    19    20    1
    13    20    21   ar
    14    21    29    1
    15    29    30   ar
    16    30    31   ar
    17    31    32   ar
    18    32    33   ar
    19    33    34   ar
    20    21    22   ar
    21    22    23   ar
    22    23    24   ar
    23    24    25   ar
    24    25    26   ar
    25    26    27   ar
    26    27    28   ar
    27     7     8   ar
    28     8     9   ar
    29    13    14   am
    30    14    15    1
    31     9     4   ar
    32    28    20   ar
    33    34    29   ar
    34    28    23   ar
    35     1     2    1
    36    14    16    1
    37    15    17    1
@<TRIPOS>MOLECULE
*****
 34 37 0 0 0
SMALL
GASTEIGER

@<TRIPOS>ATOM
      1 N         139.7623  139.1780  160.6322 N.3     1  UNL1       -0.2935
      2 H         139.6513  138.7988  159.6918 H       1  UNL1        0.1236
      3 C         138.5208  138.8187  161.3934 C.3     1  UNL1        0.0956
      4 C         138.4775  139.0916  165.8849 C.ar    1  UNL1        0.0001
      5 C         138.1222  140.2910  165.0572 C.ar    1  UNL1       -0.0003
      6 C         138.1366  140.2001  163.5600 C.ar    1  UNL1       -0.0029
      7 C         138.5063  138.9097  162.8905 C.ar    1  UNL1       -0.0064
      8 C         138.8617  137.7102  163.7183 C.ar    1  UNL1       -0.0029
      9 C         138.8473  137.8012  165.2155 C.ar    1  UNL1       -0.0003
     10 C         139.4140  140.1041  168.0866 C.2     1  UNL1        0.0598
     11 C         138.4631  139.1826  167.3821 C.2     1  UNL1        0.0047
     12 O         138.1173  139.9928  170.3351 O.2     1  UNL1       -0.2681
     13 C         139.3996  140.1952  169.5838 C.2     1  UNL1        0.2679
     14 N         140.6676  140.4886  170.3296 N.am    1  UNL1       -0.1934
     15 O         140.6531  140.5796  171.8268 O.3     1  UNL1       -0.2949
     16 H         141.5092  140.6214  169.8365 H       1  UNL1        0.1825
     17 H         139.7523  140.4247  172.1514 H       1  UNL1        0.2414
     18 C         140.1556  140.6170  160.4751 C.3     1  UNL1        0.0736
     19 C         139.0986  141.6739  160.3481 C.3     1  UNL1        0.0465
     20 C         139.4886  143.0945  160.0655 C.ar    1  UNL1        0.0162
     21 C         139.7544  144.1565  161.0909 C.ar    1  UNL1        0.0988
     22 N         140.1113  145.4208  160.3669 N.ar    1  UNL1       -0.1654
     23 N         140.0661  145.1401  158.8940 N.ar    1  UNL1       -0.2285
     24 C         140.3257  146.0080  157.6985 C.ar    1  UNL1        0.1004
     25 C         140.2004  145.4381  156.3167 C.ar    1  UNL1        0.0207
     26 C         139.8155  144.0003  156.1304 C.ar    1  UNL1        0.0031
     27 C         139.5560  143.1324  157.3260 C.ar    1  UNL1        0.0189
     28 C         139.6813  143.7023  158.7078 C.ar    1  UNL1        0.0804
     29 C         139.6769  143.9844  162.5790 C.ar    1  UNL1        0.0191
     30 C         140.7402  143.2111  163.3009 C.ar    1  UNL1        0.0015
     31 C         140.6626  143.0390  164.7890 C.ar    1  UNL1        0.0000
     32 C         139.5219  143.6404  165.5551 C.ar    1  UNL1        0.0000
     33 C         138.4586  144.4137  164.8331 C.ar    1  UNL1        0.0000
     34 C         138.5361  144.5858  163.3451 C.ar    1  UNL1        0.0015
@<TRIPOS>BOND
     1    12    13    2
     2    13    10    1
     3    10    11    2
     4    11     4    1
     5     4     5   ar
     6     5     6   ar
     7     6     7   ar
     8     7     3    1
     9     3     1    1
    10     1    18    1
    11    18    19    1
    12    19    20    1
    13    20    21   ar
    14    21    29    1
    15    29    30   ar
    16    30    31   ar
    17    31    32   ar
    18    32    33   ar
    19    33    34   ar
    20    21    22   ar
    21    22    23   ar
    22    23    24   ar
    23    24    25   ar
    24    25    26   ar
    25    26    27   ar
    26    27    28   ar
    27     7     8   ar
    28     8     9   ar
    29    13    14   am
    30    14    15    1
    31     9     4   ar
    32    28    20   ar
    33    34    29   ar
    34    28    23   ar
    35     1     2    1
    36    14    16    1
    37    15    17    1
@<TRIPOS>MOLECULE
*****
 34 37 0 0 0
SMALL
GASTEIGER

@<TRIPOS>ATOM
      1 N         144.8533  143.2648  162.4828 N.3     1  UNL1       -0.2935
      2 H         145.1626  142.4923  163.0727 H       1  UNL1        0.1236
      3 C         143.9885  144.1431  163.3377 C.3     1  UNL1        0.0956
      4 C         141.3800  142.3201  166.5193 C.ar    1  UNL1        0.0001
      5 C         140.7590  143.0791  165.3842 C.ar    1  UNL1       -0.0003
      6 C         141.6285  143.6868  164.3236 C.ar    1  UNL1       -0.0029
      7 C         143.1190  143.5354  164.3982 C.ar    1  UNL1       -0.0064
      8 C         143.7400  142.7764  165.5333 C.ar    1  UNL1       -0.0029
      9 C         142.8704  142.1688  166.5938 C.ar    1  UNL1       -0.0003
     10 C         141.0372  141.5400  168.9736 C.2     1  UNL1        0.0598
     11 C         140.5104  141.7125  167.5798 C.2     1  UNL1        0.0047
     12 O         138.9509  141.6647  170.5169 O.2     1  UNL1       -0.2681
     13 C         140.1677  140.9323  170.0342 C.2     1  UNL1        0.2679
     14 N         140.5150  139.5924  170.6120 N.am    1  UNL1       -0.1934
     15 O         139.6454  138.9848  171.6726 O.3     1  UNL1       -0.2949
     16 H         141.3136  139.1117  170.2952 H       1  UNL1        0.1825
     17 H         138.9075  139.5834  171.8677 H       1  UNL1        0.2414
     18 C         144.2974  142.6568  161.2293 C.3     1  UNL1        0.0736
     19 C         143.9149  141.2065  161.2048 C.3     1  UNL1        0.0465
     20 C         142.8840  140.6865  162.1622 C.ar    1  UNL1        0.0162
     21 C         141.3970  140.8145  162.0119 C.ar    1  UNL1        0.0988
     22 N         140.7531  140.1542  163.1948 N.ar    1  UNL1       -0.1654
     23 N         141.8420  139.6182  164.0762 N.ar    1  UNL1       -0.2285
     24 C         141.8045  138.8730  165.3775 C.ar    1  UNL1        0.1004
     25 C         143.0840  138.4569  166.0405 C.ar    1  UNL1        0.0207
     26 C         144.4010  138.7858  165.4023 C.ar    1  UNL1        0.0031
     27 C         144.4385  139.5310  164.1010 C.ar    1  UNL1        0.0189
     28 C         143.1590  139.9471  163.4380 C.ar    1  UNL1        0.0804
     29 C         140.6799  141.4850  160.8777 C.ar    1  UNL1        0.0191
     30 C         140.2915  140.6942  159.6638 C.ar    1  UNL1        0.0015
     31 C         139.5744  141.3647  158.5297 C.ar    1  UNL1        0.0000
     32 C         139.2458  142.8260  158.6095 C.ar    1  UNL1        0.0000
     33 C         139.6343  143.6169  159.8234 C.ar    1  UNL1        0.0000
     34 C         140.3514  142.9464  160.9575 C.ar    1  UNL1        0.0015
@<TRIPOS>BOND
     1    12    13    2
     2    13    10    1
     3    10    11    2
     4    11     4    1
     5     4     5   ar
     6     5     6   ar
     7     6     7   ar
     8     7     3    1
     9     3     1    1
    10     1    18    1
    11    18    19    1
    12    19    20    1
    13    20    21   ar
    14    21    29    1
    15    29    30   ar
    16    30    31   ar
    17    31    32   ar
    18    32    33   ar
    19    33    34   ar
    20    21    22   ar
    21    22    23   ar
    22    23    24   ar
    23    24    25   ar
    24    25    26   ar
    25    26    27   ar
    26    27    28   ar
    27     7     8   ar
    28     8     9   ar
    29    13    14   am
    30    14    15    1
    31     9     4   ar
    32    28    20   ar
    33    34    29   ar
    34    28    23   ar
    35     1     2    1
    36    14    16    1
    37    15    17    1
