@<TRIPOS>MOLECULE
*****
 35 38 0 0 0
SMALL
GASTEIGER

@<TRIPOS>ATOM
      1 C         140.7019  141.6946  162.3643 C.ar    1  UNL1        0.0901
      2 C         139.7788  140.6463  161.8174 C.ar    1  UNL1        0.0212
      3 C         138.9505  139.8151  162.7517 C.ar    1  UNL1        0.0754
      4 C         139.0453  140.0320  164.2329 C.ar    1  UNL1        0.0382
      5 C         139.9685  141.0802  164.7799 C.ar    1  UNL1        0.1313
      6 N         140.7968  141.9115  163.8456 N.ar    1  UNL1       -0.2325
      7 N         140.0633  141.2971  166.2610 N.pl3   1  UNL1       -0.2932
      8 C         140.4989  142.6283  166.7978 C.3     1  UNL1        0.0932
      9 C         140.5937  142.8452  168.2790 C.3     1  UNL1        0.0366
     10 C         140.2528  141.7308  169.2235 C.3     1  UNL1        0.0948
     11 C         139.8171  140.3996  168.6868 C.3     1  UNL1        0.0366
     12 C         139.7223  140.1827  167.2055 C.3     1  UNL1        0.0932
     13 C         140.3476  141.9477  170.7046 C.1     1  UNL1        0.0722
     14 N         140.4423  142.1646  172.1859 N.1     1  UNL1       -0.1959
     15 C         138.0273  138.7668  162.2049 C.3     1  UNL1        0.4187
     16 F         137.1043  137.7186  161.6581 F       1  UNL1       -0.1659
     17 F         138.7141  137.7267  163.0395 F       1  UNL1       -0.1659
     18 F         137.3407  139.8070  161.3703 F       1  UNL1       -0.1659
     19 C         141.5302  142.5259  161.4301 C.3     1  UNL1        0.1875
     20 O         142.8012  141.9706  160.8587 O.3     1  UNL1       -0.3470
     21 C         143.4958  140.8307  161.5428 C.3     1  UNL1        0.1467
     22 C         142.8100  137.1587  157.1967 C.3     1  UNL1        0.0896
     23 N         142.9717  137.9149  158.4821 N.3     1  UNL1       -0.2715
     24 C         142.9486  137.1827  159.7910 C.3     1  UNL1        0.0725
     25 C         143.1102  137.9389  161.0763 C.3     1  UNL1        0.0238
     26 C         143.2949  139.4273  161.0527 C.3     1  UNL1        0.0489
     27 C         143.3180  140.1594  159.7438 C.3     1  UNL1        0.0238
     28 C         143.1564  139.4033  158.4585 C.3     1  UNL1        0.0725
     29 C         143.3416  139.1824  162.5319 C.ar    1  UNL1       -0.0202
     30 C         142.2696  138.3665  163.1913 C.ar    1  UNL1       -0.0019
     31 C         142.3162  138.1216  164.6704 C.ar    1  UNL1        0.0293
     32 C         143.4351  138.6928  165.4901 C.ar    1  UNL1        0.1401
     33 F         143.4818  138.4479  166.9693 F       1  UNL1       -0.2042
     34 C         144.5072  139.5088  164.8308 C.ar    1  UNL1        0.0293
     35 C         144.4605  139.7536  163.3516 C.ar    1  UNL1       -0.0019
@<TRIPOS>BOND
     1    22    23    1
     2    23    24    1
     3    24    25    1
     4    25    26    1
     5    26    21    1
     6    21    20    1
     7    20    19    1
     8    19     1    1
     9     1     2   ar
    10     2     3   ar
    11     3    15    1
    12    15    16    1
    13    15    17    1
    14    15    18    1
    15     3     4   ar
    16     4     5   ar
    17     5     7    1
    18     7     8    1
    19     8     9    1
    20     9    10    1
    21    10    13    1
    22    13    14    3
    23    10    11    1
    24    11    12    1
    25     5     6   ar
    26    26    29    1
    27    29    30   ar
    28    30    31   ar
    29    31    32   ar
    30    32    33    1
    31    32    34   ar
    32    34    35   ar
    33    26    27    1
    34    27    28    1
    35    28    23    1
    36     6     1   ar
    37    35    29   ar
    38    12     7    1
@<TRIPOS>MOLECULE
*****
 35 38 0 0 0
SMALL
GASTEIGER

@<TRIPOS>ATOM
      1 C         138.6631  141.8483  162.6193 C.ar    1  UNL1        0.0901
      2 C         138.2170  143.0575  163.3868 C.ar    1  UNL1        0.0212
      3 C         138.7924  143.3392  164.7431 C.ar    1  UNL1        0.0754
      4 C         139.8138  142.4119  165.3319 C.ar    1  UNL1        0.0382
      5 C         140.2600  141.2028  164.5644 C.ar    1  UNL1        0.1313
      6 N         139.6846  140.9210  163.2081 N.ar    1  UNL1       -0.2325
      7 N         141.2814  140.2755  165.1532 N.pl3   1  UNL1       -0.2932
      8 C         141.5740  140.3182  166.6238 C.3     1  UNL1        0.0932
      9 C         142.5954  139.3909  167.2126 C.3     1  UNL1        0.0366
     10 C         143.3244  138.4208  166.3307 C.3     1  UNL1        0.0948
     11 C         143.0319  138.3781  164.8602 C.3     1  UNL1        0.0366
     12 C         142.0104  139.3054  164.2714 C.3     1  UNL1        0.0932
     13 C         144.3458  137.4935  166.9196 C.1     1  UNL1        0.0722
     14 N         145.3674  136.5663  167.5084 N.1     1  UNL1       -0.1959
     15 C         138.3463  144.5483  165.5107 C.3     1  UNL1        0.4187
     16 F         137.9003  145.7574  166.2782 F       1  UNL1       -0.1659
     17 F         139.5144  144.3902  166.4384 F       1  UNL1       -0.1659
     18 F         137.1783  144.7063  164.5829 F       1  UNL1       -0.1659
     19 C         138.0878  141.5665  161.2630 C.3     1  UNL1        0.1875
     20 O         138.2770  142.5525  160.1485 O.3     1  UNL1       -0.3470
     21 C         139.6515  142.8249  159.6134 C.3     1  UNL1        0.1467
     22 C         139.4563  146.0738  154.8965 C.3     1  UNL1        0.0896
     23 N         139.6187  145.4239  156.2387 N.3     1  UNL1       -0.2715
     24 C         140.2612  146.1786  157.3646 C.3     1  UNL1        0.0725
     25 C         140.4236  145.5287  158.7067 C.3     1  UNL1        0.0238
     26 C         139.9436  144.1242  158.9229 C.3     1  UNL1        0.0489
     27 C         139.3012  143.3695  157.7970 C.3     1  UNL1        0.0238
     28 C         139.1388  144.0193  156.4549 C.3     1  UNL1        0.0725
     29 C         140.4847  144.4277  160.2886 C.ar    1  UNL1       -0.0202
     30 C         141.5785  143.5801  160.8675 C.ar    1  UNL1       -0.0019
     31 C         142.1195  143.8835  162.2332 C.ar    1  UNL1        0.0293
     32 C         141.5666  145.0347  163.0200 C.ar    1  UNL1        0.1401
     33 F         142.1076  145.3382  164.3858 F       1  UNL1       -0.2042
     34 C         140.4728  145.8823  162.4413 C.ar    1  UNL1        0.0293
     35 C         139.9318  145.5788  161.0755 C.ar    1  UNL1       -0.0019
@<TRIPOS>BOND
     1    22    23    1
     2    23    24    1
     3    24    25    1
     4    25    26    1
     5    26    21    1
     6    21    20    1
     7    20    19    1
     8    19     1    1
     9     1     2   ar
    10     2     3   ar
    11     3    15    1
    12    15    16    1
    13    15    17    1
    14    15    18    1
    15     3     4   ar
    16     4     5   ar
    17     5     7    1
    18     7     8    1
    19     8     9    1
    20     9    10    1
    21    10    13    1
    22    13    14    3
    23    10    11    1
    24    11    12    1
    25     5     6   ar
    26    26    29    1
    27    29    30   ar
    28    30    31   ar
    29    31    32   ar
    30    32    33    1
    31    32    34   ar
    32    34    35   ar
    33    26    27    1
    34    27    28    1
    35    28    23    1
    36     6     1   ar
    37    35    29   ar
    38    12     7    1
@<TRIPOS>MOLECULE
*****
 35 38 0 0 0
SMALL
GASTEIGER

@<TRIPOS>ATOM
      1 C         141.9222  142.0799  163.9129 C.ar    1  UNL1        0.0901
      2 C         141.2040  143.0098  164.8455 C.ar    1  UNL1        0.0212
      3 C         139.8546  143.5494  164.4744 C.ar    1  UNL1        0.0754
      4 C         139.2233  143.1593  163.1709 C.ar    1  UNL1        0.0382
      5 C         139.9415  142.2295  162.2383 C.ar    1  UNL1        0.1313
      6 N         141.2910  141.6898  162.6093 N.ar    1  UNL1       -0.2325
      7 N         139.3103  141.8394  160.9348 N.pl3   1  UNL1       -0.2932
      8 C         138.8334  140.4330  160.7234 C.3     1  UNL1        0.0932
      9 C         138.2021  140.0429  159.4199 C.3     1  UNL1        0.0366
     10 C         138.0477  141.0593  158.3275 C.3     1  UNL1        0.0948
     11 C         138.5245  142.4657  158.5388 C.3     1  UNL1        0.0366
     12 C         139.1558  142.8558  159.8424 C.3     1  UNL1        0.0932
     13 C         137.4164  140.6692  157.0240 C.1     1  UNL1        0.0722
     14 N         136.7851  140.2791  155.7204 N.1     1  UNL1       -0.1959
     15 C         139.1363  144.4793  165.4069 C.3     1  UNL1        0.4187
     16 F         138.4180  145.4092  166.3393 F       1  UNL1       -0.1659
     17 F         138.5436  145.1995  164.2321 F       1  UNL1       -0.1659
     18 F         139.7290  143.7591  166.5816 F       1  UNL1       -0.1659
     19 C         143.2717  141.5402  164.2840 C.3     1  UNL1        0.1875
     20 O         143.4562  140.8082  165.5802 O.3     1  UNL1       -0.3470
     21 C         142.5282  139.6885  165.9479 C.3     1  UNL1        0.1467
     22 C         140.9321  141.4776  171.1530 C.3     1  UNL1        0.0896
     23 N         141.1046  140.9558  169.7573 N.3     1  UNL1       -0.2715
     24 C         139.9155  140.4574  168.9907 C.3     1  UNL1        0.0725
     25 C         140.0880  139.9355  167.5950 C.3     1  UNL1        0.0238
     26 C         141.4495  139.9120  166.9660 C.3     1  UNL1        0.0489
     27 C         142.6385  140.4104  167.7326 C.3     1  UNL1        0.0238
     28 C         142.4660  140.9323  169.1283 C.3     1  UNL1        0.0725
     29 C         140.6350  139.3360  165.8457 C.ar    1  UNL1       -0.0202
     30 C         141.1334  138.1362  165.0960 C.ar    1  UNL1       -0.0019
     31 C         140.3191  137.5602  163.9758 C.ar    1  UNL1        0.0293
     32 C         139.0062  138.1840  163.6053 C.ar    1  UNL1        0.1401
     33 F         138.1918  137.6080  162.4851 F       1  UNL1       -0.2042
     34 C         138.5078  139.3838  164.3549 C.ar    1  UNL1        0.0293
     35 C         139.3222  139.9598  165.4752 C.ar    1  UNL1       -0.0019
@<TRIPOS>BOND
     1    22    23    1
     2    23    24    1
     3    24    25    1
     4    25    26    1
     5    26    21    1
     6    21    20    1
     7    20    19    1
     8    19     1    1
     9     1     2   ar
    10     2     3   ar
    11     3    15    1
    12    15    16    1
    13    15    17    1
    14    15    18    1
    15     3     4   ar
    16     4     5   ar
    17     5     7    1
    18     7     8    1
    19     8     9    1
    20     9    10    1
    21    10    13    1
    22    13    14    3
    23    10    11    1
    24    11    12    1
    25     5     6   ar
    26    26    29    1
    27    29    30   ar
    28    30    31   ar
    29    31    32   ar
    30    32    33    1
    31    32    34   ar
    32    34    35   ar
    33    26    27    1
    34    27    28    1
    35    28    23    1
    36     6     1   ar
    37    35    29   ar
    38    12     7    1
@<TRIPOS>MOLECULE
*****
 35 38 0 0 0
SMALL
GASTEIGER

@<TRIPOS>ATOM
      1 C         138.5136  141.2957  164.2421 C.ar    1  UNL1        0.0901
      2 C         138.1109  140.2728  165.2627 C.ar    1  UNL1        0.0212
      3 C         138.4716  138.8307  165.0619 C.ar    1  UNL1        0.0754
      4 C         139.2348  138.4115  163.8405 C.ar    1  UNL1        0.0382
      5 C         139.6374  139.4344  162.8199 C.ar    1  UNL1        0.1313
      6 N         139.2768  140.8765  163.0207 N.ar    1  UNL1       -0.2325
      7 N         140.4006  139.0151  161.5986 N.pl3   1  UNL1       -0.2932
      8 C         139.8365  139.2795  160.2341 C.3     1  UNL1        0.0932
      9 C         140.5997  138.8602  159.0127 C.3     1  UNL1        0.0366
     10 C         141.9272  138.1766  159.1559 C.3     1  UNL1        0.0948
     11 C         142.4915  137.9122  160.5204 C.3     1  UNL1        0.0366
     12 C         141.7282  138.3315  161.7418 C.3     1  UNL1        0.0932
     13 C         142.6904  137.7573  157.9346 C.1     1  UNL1        0.0722
     14 N         143.4537  137.3381  156.7132 N.1     1  UNL1       -0.1959
     15 C         138.0690  137.8077  166.0825 C.3     1  UNL1        0.4187
     16 F         137.6664  136.7849  167.1030 F       1  UNL1       -0.1659
     17 F         137.3559  138.8699  166.8657 F       1  UNL1       -0.1659
     18 F         138.7820  136.7457  165.2992 F       1  UNL1       -0.1659
     19 C         138.1530  142.7378  164.4428 C.3     1  UNL1        0.1875
     20 O         139.1941  143.7139  164.9049 O.3     1  UNL1       -0.3470
     21 C         140.0594  143.3847  166.0851 C.3     1  UNL1        0.1467
     22 C         144.8538  142.7410  163.0124 C.3     1  UNL1        0.0896
     23 N         143.6976  142.7320  163.9680 N.3     1  UNL1       -0.2715
     24 C         143.7124  141.8144  165.1545 C.3     1  UNL1        0.0725
     25 C         142.5562  141.8054  166.1100 C.3     1  UNL1        0.0238
     26 C         141.3852  142.7139  165.8791 C.3     1  UNL1        0.0489
     27 C         141.3705  143.6315  164.6926 C.3     1  UNL1        0.0238
     28 C         142.5267  143.6405  163.7370 C.3     1  UNL1        0.0725
     29 C         140.9395  142.0293  167.1372 C.ar    1  UNL1       -0.0202
     30 C         140.5456  142.8425  168.3344 C.ar    1  UNL1       -0.0019
     31 C         140.0999  142.1580  169.5925 C.ar    1  UNL1        0.0293
     32 C         140.0482  140.6601  169.6532 C.ar    1  UNL1        0.1401
     33 F         139.6025  139.9755  170.9113 F       1  UNL1       -0.2042
     34 C         140.4421  139.8468  168.4560 C.ar    1  UNL1        0.0293
     35 C         140.8878  140.5314  167.1979 C.ar    1  UNL1       -0.0019
@<TRIPOS>BOND
     1    22    23    1
     2    23    24    1
     3    24    25    1
     4    25    26    1
     5    26    21    1
     6    21    20    1
     7    20    19    1
     8    19     1    1
     9     1     2   ar
    10     2     3   ar
    11     3    15    1
    12    15    16    1
    13    15    17    1
    14    15    18    1
    15     3     4   ar
    16     4     5   ar
    17     5     7    1
    18     7     8    1
    19     8     9    1
    20     9    10    1
    21    10    13    1
    22    13    14    3
    23    10    11    1
    24    11    12    1
    25     5     6   ar
    26    26    29    1
    27    29    30   ar
    28    30    31   ar
    29    31    32   ar
    30    32    33    1
    31    32    34   ar
    32    34    35   ar
    33    26    27    1
    34    27    28    1
    35    28    23    1
    36     6     1   ar
    37    35    29   ar
    38    12     7    1
@<TRIPOS>MOLECULE
*****
 35 38 0 0 0
SMALL
GASTEIGER

@<TRIPOS>ATOM
      1 C         139.3683  138.2560  162.8598 C.ar    1  UNL1        0.0901
      2 C         140.6672  137.9836  162.1606 C.ar    1  UNL1        0.0212
      3 C         141.9662  138.2833  162.8481 C.ar    1  UNL1        0.0754
      4 C         141.9664  138.8555  164.2346 C.ar    1  UNL1        0.0382
      5 C         140.6676  139.1280  164.9338 C.ar    1  UNL1        0.1313
      6 N         139.3685  138.8283  164.2464 N.ar    1  UNL1       -0.2325
      7 N         140.6678  139.7002  166.3203 N.pl3   1  UNL1       -0.2932
      8 C         141.9171  140.3158  166.8775 C.3     1  UNL1        0.0932
      9 C         141.9173  140.8880  168.2641 C.3     1  UNL1        0.0366
     10 C         140.6681  140.8447  169.0935 C.3     1  UNL1        0.0948
     11 C         139.4189  140.2291  168.5364 C.3     1  UNL1        0.0366
     12 C         139.4187  139.6569  167.1498 C.3     1  UNL1        0.0932
     13 C         140.6684  141.4169  170.4800 C.1     1  UNL1        0.0722
     14 N         140.6687  141.9891  171.8666 N.1     1  UNL1       -0.1959
     15 C         143.2651  138.0109  162.1490 C.3     1  UNL1        0.4187
     16 F         144.5639  137.7384  161.4499 F       1  UNL1       -0.1659
     17 F         142.5195  137.3845  161.0080 F       1  UNL1       -0.1659
     18 F         144.0106  138.6372  163.2900 F       1  UNL1       -0.1659
     19 C         138.0693  137.9563  162.1723 C.3     1  UNL1        0.1875
     20 O         137.4655  138.9626  161.2381 O.3     1  UNL1       -0.3470
     21 C         137.5797  140.4278  161.5383 C.3     1  UNL1        0.1467
     22 C         139.7953  141.9979  156.4917 C.3     1  UNL1        0.0896
     23 N         139.3723  141.7597  157.9110 N.3     1  UNL1       -0.2715
     24 C         139.9993  142.5476  159.0227 C.3     1  UNL1        0.0725
     25 C         139.5763  142.3094  160.4420 C.3     1  UNL1        0.0238
     26 C         138.5262  141.2834  160.7495 C.3     1  UNL1        0.0489
     27 C         137.8992  140.4956  159.6378 C.3     1  UNL1        0.0238
     28 C         138.3222  140.7337  158.2185 C.3     1  UNL1        0.0725
     29 C         138.8246  141.7742  162.1353 C.ar    1  UNL1       -0.0202
     30 C         140.2449  142.0003  162.5612 C.ar    1  UNL1       -0.0019
     31 C         140.5433  142.4910  163.9469 C.ar    1  UNL1        0.0293
     32 C         139.4213  142.7556  164.9066 C.ar    1  UNL1        0.1401
     33 F         139.7197  143.2463  166.2923 F       1  UNL1       -0.2042
     34 C         138.0009  142.5295  164.4807 C.ar    1  UNL1        0.0293
     35 C         137.7026  142.0387  163.0950 C.ar    1  UNL1       -0.0019
@<TRIPOS>BOND
     1    22    23    1
     2    23    24    1
     3    24    25    1
     4    25    26    1
     5    26    21    1
     6    21    20    1
     7    20    19    1
     8    19     1    1
     9     1     2   ar
    10     2     3   ar
    11     3    15    1
    12    15    16    1
    13    15    17    1
    14    15    18    1
    15     3     4   ar
    16     4     5   ar
    17     5     7    1
    18     7     8    1
    19     8     9    1
    20     9    10    1
    21    10    13    1
    22    13    14    3
    23    10    11    1
    24    11    12    1
    25     5     6   ar
    26    26    29    1
    27    29    30   ar
    28    30    31   ar
    29    31    32   ar
    30    32    33    1
    31    32    34   ar
    32    34    35   ar
    33    26    27    1
    34    27    28    1
    35    28    23    1
    36     6     1   ar
    37    35    29   ar
    38    12     7    1
@<TRIPOS>MOLECULE
*****
 35 38 0 0 0
SMALL
GASTEIGER

@<TRIPOS>ATOM
      1 C         142.0420  141.1370  163.5041 C.ar    1  UNL1        0.0901
      2 C         142.9777  141.8124  164.4625 C.ar    1  UNL1        0.0212
      3 C         143.4367  143.2159  164.1990 C.ar    1  UNL1        0.0754
      4 C         142.9602  143.9441  162.9772 C.ar    1  UNL1        0.0382
      5 C         142.0245  143.2687  162.0188 C.ar    1  UNL1        0.1313
      6 N         141.5654  141.8652  162.2823 N.ar    1  UNL1       -0.2325
      7 N         141.5480  143.9968  160.7971 N.pl3   1  UNL1       -0.2932
      8 C         141.9960  143.5521  159.4364 C.3     1  UNL1        0.0932
      9 C         141.5195  144.2802  158.2147 C.3     1  UNL1        0.0366
     10 C         140.5948  145.4532  158.3537 C.3     1  UNL1        0.0948
     11 C         140.1467  145.8980  159.7143 C.3     1  UNL1        0.0366
     12 C         140.6233  145.1698  160.9361 C.3     1  UNL1        0.0932
     13 C         140.1183  146.1813  157.1319 C.1     1  UNL1        0.0722
     14 N         139.6417  146.9095  155.9102 N.1     1  UNL1       -0.1959
     15 C         144.3723  143.8914  165.1573 C.3     1  UNL1        0.4187
     16 F         145.3079  144.5669  166.1156 F       1  UNL1       -0.1659
     17 F         144.2342  145.1724  164.3892 F       1  UNL1       -0.1659
     18 F         144.5104  142.6104  165.9254 F       1  UNL1       -0.1659
     19 C         141.5829  139.7335  163.7675 C.3     1  UNL1        0.1875
     20 O         140.9026  139.3974  165.0614 O.3     1  UNL1       -0.3470
     21 C         139.8215  140.2903  165.5944 C.3     1  UNL1        0.1467
     22 C         141.9190  141.3242  170.8264 C.3     1  UNL1        0.0896
     23 N         141.3210  141.3020  169.4509 N.3     1  UNL1       -0.2715
     24 C         140.8136  142.5712  168.8331 C.3     1  UNL1        0.0725
     25 C         140.2156  142.5490  167.4577 C.3     1  UNL1        0.0238
     26 C         140.1250  141.2576  166.7000 C.3     1  UNL1        0.0489
     27 C         140.6324  139.9884  167.3178 C.3     1  UNL1        0.0238
     28 C         141.2304  140.0106  168.6933 C.3     1  UNL1        0.0725
     29 C         139.5121  142.1909  165.6982 C.ar    1  UNL1       -0.0202
     30 C         138.3501  141.7385  164.8647 C.ar    1  UNL1       -0.0019
     31 C         137.7372  142.6717  163.8629 C.ar    1  UNL1        0.0293
     32 C         138.2865  144.0573  163.6948 C.ar    1  UNL1        0.1401
     33 F         137.6737  144.9906  162.6930 F       1  UNL1       -0.2042
     34 C         139.4486  144.5098  164.5283 C.ar    1  UNL1        0.0293
     35 C         140.0614  143.5765  165.5301 C.ar    1  UNL1       -0.0019
@<TRIPOS>BOND
     1    22    23    1
     2    23    24    1
     3    24    25    1
     4    25    26    1
     5    26    21    1
     6    21    20    1
     7    20    19    1
     8    19     1    1
     9     1     2   ar
    10     2     3   ar
    11     3    15    1
    12    15    16    1
    13    15    17    1
    14    15    18    1
    15     3     4   ar
    16     4     5   ar
    17     5     7    1
    18     7     8    1
    19     8     9    1
    20     9    10    1
    21    10    13    1
    22    13    14    3
    23    10    11    1
    24    11    12    1
    25     5     6   ar
    26    26    29    1
    27    29    30   ar
    28    30    31   ar
    29    31    32   ar
    30    32    33    1
    31    32    34   ar
    32    34    35   ar
    33    26    27    1
    34    27    28    1
    35    28    23    1
    36     6     1   ar
    37    35    29   ar
    38    12     7    1
@<TRIPOS>MOLECULE
*****
 35 38 0 0 0
SMALL
GASTEIGER

@<TRIPOS>ATOM
      1 C         141.7137  139.8005  164.1303 C.ar    1  UNL1        0.0901
      2 C         140.7811  139.1426  165.1037 C.ar    1  UNL1        0.0212
      3 C         139.3614  138.8618  164.7092 C.ar    1  UNL1        0.0754
      4 C         138.8743  139.2388  163.3416 C.ar    1  UNL1        0.0382
      5 C         139.8070  139.8967  162.3682 C.ar    1  UNL1        0.1313
      6 N         141.2267  140.1775  162.7625 N.ar    1  UNL1       -0.2325
      7 N         139.3199  140.2737  161.0005 N.pl3   1  UNL1       -0.2932
      8 C         139.3531  139.2675  159.8886 C.3     1  UNL1        0.0932
      9 C         138.8660  139.6445  158.5210 C.3     1  UNL1        0.0366
     10 C         138.3456  141.0279  158.2652 C.3     1  UNL1        0.0948
     11 C         138.3123  142.0342  159.3770 C.3     1  UNL1        0.0366
     12 C         138.7994  141.6572  160.7448 C.3     1  UNL1        0.0932
     13 C         137.8585  141.4049  156.8976 C.1     1  UNL1        0.0722
     14 N         137.3714  141.7820  155.5298 N.1     1  UNL1       -0.1959
     15 C         138.4287  138.2039  165.6826 C.3     1  UNL1        0.4187
     16 F         137.4960  137.5462  166.6559 F       1  UNL1       -0.1659
     17 F         137.7444  139.5184  165.9152 F       1  UNL1       -0.1659
     18 F         139.1129  136.8896  165.4499 F       1  UNL1       -0.1659
     19 C         143.1335  140.0813  164.5246 C.3     1  UNL1        0.1875
     20 O         143.4543  141.2783  165.3699 O.3     1  UNL1       -0.3470
     21 C         142.4703  142.4052  165.4785 C.3     1  UNL1        0.1467
     22 C         141.8764  141.9634  171.1613 C.3     1  UNL1        0.0896
     23 N         141.7906  142.1562  169.6762 N.3     1  UNL1       -0.2715
     24 C         140.5125  142.6358  169.0547 C.3     1  UNL1        0.0725
     25 C         140.4267  142.8287  167.5697 C.3     1  UNL1        0.0238
     26 C         141.6191  142.5419  166.7060 C.3     1  UNL1        0.0489
     27 C         142.8973  142.0623  167.3275 C.3     1  UNL1        0.0238
     28 C         142.9830  141.8695  168.8126 C.3     1  UNL1        0.0725
     29 C         140.6365  142.9741  165.6582 C.ar    1  UNL1       -0.0202
     30 C         139.2572  142.3850  165.6351 C.ar    1  UNL1       -0.0019
     31 C         138.2746  142.8171  164.5873 C.ar    1  UNL1        0.0293
     32 C         138.6714  143.8383  163.5628 C.ar    1  UNL1        0.1401
     33 F         137.6888  144.2705  162.5150 F       1  UNL1       -0.2042
     34 C         140.0507  144.4274  163.5859 C.ar    1  UNL1        0.0293
     35 C         141.0333  143.9953  164.6337 C.ar    1  UNL1       -0.0019
@<TRIPOS>BOND
     1    22    23    1
     2    23    24    1
     3    24    25    1
     4    25    26    1
     5    26    21    1
     6    21    20    1
     7    20    19    1
     8    19     1    1
     9     1     2   ar
    10     2     3   ar
    11     3    15    1
    12    15    16    1
    13    15    17    1
    14    15    18    1
    15     3     4   ar
    16     4     5   ar
    17     5     7    1
    18     7     8    1
    19     8     9    1
    20     9    10    1
    21    10    13    1
    22    13    14    3
    23    10    11    1
    24    11    12    1
    25     5     6   ar
    26    26    29    1
    27    29    30   ar
    28    30    31   ar
    29    31    32   ar
    30    32    33    1
    31    32    34   ar
    32    34    35   ar
    33    26    27    1
    34    27    28    1
    35    28    23    1
    36     6     1   ar
    37    35    29   ar
    38    12     7    1
@<TRIPOS>MOLECULE
*****
 35 38 0 0 0
SMALL
GASTEIGER

@<TRIPOS>ATOM
      1 C         142.2456  141.7727  163.6516 C.ar    1  UNL1        0.0901
      2 C         142.9185  140.9407  164.7029 C.ar    1  UNL1        0.0212
      3 C         143.2641  139.5091  164.4187 C.ar    1  UNL1        0.0754
      4 C         142.9368  138.9093  163.0834 C.ar    1  UNL1        0.0382
      5 C         142.2639  139.7412  162.0321 C.ar    1  UNL1        0.1313
      6 N         141.9183  141.1730  162.3162 N.ar    1  UNL1       -0.2325
      7 N         141.9367  139.1415  160.6968 N.pl3   1  UNL1       -0.2932
      8 C         142.9898  138.3976  159.9302 C.3     1  UNL1        0.0932
      9 C         142.6625  137.7978  158.5949 C.3     1  UNL1        0.0366
     10 C         141.2820  137.9420  158.0261 C.3     1  UNL1        0.0948
     11 C         140.2288  138.6859  158.7925 C.3     1  UNL1        0.0366
     12 C         140.5562  139.2856  160.1279 C.3     1  UNL1        0.0932
     13 C         140.9548  137.3422  156.6908 C.1     1  UNL1        0.0722
     14 N         140.6276  136.7424  155.3553 N.1     1  UNL1       -0.1959
     15 C         143.9370  138.6770  165.4699 C.3     1  UNL1        0.4187
     16 F         144.6098  137.8450  166.5211 F       1  UNL1       -0.1659
     17 F         142.5982  138.3232  166.0467 F       1  UNL1       -0.1659
     18 F         145.2756  139.0309  164.8931 F       1  UNL1       -0.1659
     19 C         141.9000  143.2044  163.9357 C.3     1  UNL1        0.1875
     20 O         141.0777  143.5525  165.1411 O.3     1  UNL1       -0.3470
     21 C         139.7877  142.8329  165.4022 C.3     1  UNL1        0.1467
     22 C         140.7969  140.9276  170.7119 C.3     1  UNL1        0.0896
     23 N         140.4440  141.1931  169.2784 N.3     1  UNL1       -0.2715
     24 C         139.8369  140.1062  168.4417 C.3     1  UNL1        0.0725
     25 C         139.4841  140.3718  167.0082 C.3     1  UNL1        0.0238
     26 C         139.7383  141.7242  166.4113 C.3     1  UNL1        0.0489
     27 C         140.3454  142.8111  167.2480 C.3     1  UNL1        0.0238
     28 C         140.6983  142.5455  168.6816 C.3     1  UNL1        0.0725
     29 C         139.1484  141.0223  165.2242 C.ar    1  UNL1       -0.0202
     30 C         138.1306  141.7189  164.3705 C.ar    1  UNL1       -0.0019
     31 C         137.5406  141.0171  163.1833 C.ar    1  UNL1        0.0293
     32 C         137.9685  139.6187  162.8499 C.ar    1  UNL1        0.1401
     33 F         137.3785  138.9168  161.6627 F       1  UNL1       -0.2042
     34 C         138.9863  138.9220  163.7035 C.ar    1  UNL1        0.0293
     35 C         139.5763  139.6239  164.8907 C.ar    1  UNL1       -0.0019
@<TRIPOS>BOND
     1    22    23    1
     2    23    24    1
     3    24    25    1
     4    25    26    1
     5    26    21    1
     6    21    20    1
     7    20    19    1
     8    19     1    1
     9     1     2   ar
    10     2     3   ar
    11     3    15    1
    12    15    16    1
    13    15    17    1
    14    15    18    1
    15     3     4   ar
    16     4     5   ar
    17     5     7    1
    18     7     8    1
    19     8     9    1
    20     9    10    1
    21    10    13    1
    22    13    14    3
    23    10    11    1
    24    11    12    1
    25     5     6   ar
    26    26    29    1
    27    29    30   ar
    28    30    31   ar
    29    31    32   ar
    30    32    33    1
    31    32    34   ar
    32    34    35   ar
    33    26    27    1
    34    27    28    1
    35    28    23    1
    36     6     1   ar
    37    35    29   ar
    38    12     7    1
@<TRIPOS>MOLECULE
*****
 35 38 0 0 0
SMALL
GASTEIGER

@<TRIPOS>ATOM
      1 C         140.9403  140.3416  163.0156 C.ar    1  UNL1        0.0901
      2 C         142.3329  140.3974  163.5704 C.ar    1  UNL1        0.0212
      3 C         143.3143  141.3969  163.0340 C.ar    1  UNL1        0.0754
      4 C         142.9034  142.3406  161.9429 C.ar    1  UNL1        0.0382
      5 C         141.5108  142.2848  161.3881 C.ar    1  UNL1        0.1313
      6 N         140.5293  141.2853  161.9244 N.ar    1  UNL1       -0.2325
      7 N         141.0999  143.2285  160.2970 N.pl3   1  UNL1       -0.2932
      8 C         140.1991  142.7546  159.1952 C.3     1  UNL1        0.0932
      9 C         139.7882  143.6982  158.1041 C.3     1  UNL1        0.0366
     10 C         140.2781  145.1160  158.1148 C.3     1  UNL1        0.0948
     11 C         141.1789  145.5900  159.2165 C.3     1  UNL1        0.0366
     12 C         141.5898  144.6462  160.3077 C.3     1  UNL1        0.0932
     13 C         139.8672  146.0597  157.0237 C.1     1  UNL1        0.0722
     14 N         139.4562  147.0034  155.9325 N.1     1  UNL1       -0.1959
     15 C         144.7069  141.4527  163.5888 C.3     1  UNL1        0.4187
     16 F         146.0994  141.5086  164.1435 F       1  UNL1       -0.1659
     17 F         144.1588  141.8644  164.9230 F       1  UNL1       -0.1659
     18 F         145.2549  141.0410  162.2545 F       1  UNL1       -0.1659
     19 C         139.9588  139.3422  163.5519 C.3     1  UNL1        0.1875
     20 O         139.3917  139.5130  164.9301 O.3     1  UNL1       -0.3470
     21 C         138.9393  140.8663  165.3924 C.3     1  UNL1        0.1467
     22 C         141.6117  140.9997  170.4602 C.3     1  UNL1        0.0896
     23 N         140.9882  141.2054  169.1115 N.3     1  UNL1       -0.2715
     24 C         141.1135  142.5314  168.4217 C.3     1  UNL1        0.0725
     25 C         140.4900  142.7371  167.0730 C.3     1  UNL1        0.0238
     26 C         139.7413  141.6167  166.4141 C.3     1  UNL1        0.0489
     27 C         139.6160  140.2907  167.1040 C.3     1  UNL1        0.0238
     28 C         140.2395  140.0850  168.4526 C.3     1  UNL1        0.0725
     29 C         139.5880  142.6822  165.3694 C.ar    1  UNL1       -0.0202
     30 C         138.2674  142.8777  164.6856 C.ar    1  UNL1       -0.0019
     31 C         138.1141  143.9431  163.6410 C.ar    1  UNL1        0.0293
     32 C         139.2816  144.8131  163.2802 C.ar    1  UNL1        0.1401
     33 F         139.1283  145.8785  162.2355 F       1  UNL1       -0.2042
     34 C         140.6023  144.6176  163.9639 C.ar    1  UNL1        0.0293
     35 C         140.7555  143.5521  165.0086 C.ar    1  UNL1       -0.0019
@<TRIPOS>BOND
     1    22    23    1
     2    23    24    1
     3    24    25    1
     4    25    26    1
     5    26    21    1
     6    21    20    1
     7    20    19    1
     8    19     1    1
     9     1     2   ar
    10     2     3   ar
    11     3    15    1
    12    15    16    1
    13    15    17    1
    14    15    18    1
    15     3     4   ar
    16     4     5   ar
    17     5     7    1
    18     7     8    1
    19     8     9    1
    20     9    10    1
    21    10    13    1
    22    13    14    3
    23    10    11    1
    24    11    12    1
    25     5     6   ar
    26    26    29    1
    27    29    30   ar
    28    30    31   ar
    29    31    32   ar
    30    32    33    1
    31    32    34   ar
    32    34    35   ar
    33    26    27    1
    34    27    28    1
    35    28    23    1
    36     6     1   ar
    37    35    29   ar
    38    12     7    1
