@<TRIPOS>MOLECULE
*****
 35 39 0 0 0
SMALL
GASTEIGER

@<TRIPOS>ATOM
      1 O         140.6035  137.0850  163.0787 O.2     1  UNL1       -0.2668
      2 C         140.2520  138.5141  163.3686 C.2     1  UNL1        0.2806
      3 N         140.2394  139.5233  162.2589 N.am    1  UNL1       -0.2999
      4 H         140.0087  140.4612  162.4491 H       1  UNL1        0.1498
      5 C         139.9132  138.9341  164.7682 C.ar    1  UNL1        0.2014
      6 C         138.7808  138.2727  165.4963 C.ar    1  UNL1        0.0843
      7 C         138.4420  138.6927  166.8959 C.ar    1  UNL1        0.2018
      8 O         137.3095  138.0313  167.6240 O.2     1  UNL1       -0.2864
      9 C         139.2356  139.7741  167.5674 C.ar    1  UNL1        0.0738
     10 C         138.8967  140.1941  168.9669 C.ar    1  UNL1        0.0094
     11 C         139.6903  141.2754  169.6383 C.ar    1  UNL1        0.0374
     12 C         140.8227  141.9368  168.9102 C.ar    1  UNL1        0.1473
     13 C         141.1615  141.5169  167.5106 C.ar    1  UNL1        0.0746
     14 C         140.3680  140.4355  166.8392 C.ar    1  UNL1        0.1515
     15 O         140.7068  140.0155  165.4396 O.2     1  UNL1       -0.4486
     16 O         141.6163  143.0182  169.5817 O.3     1  UNL1       -0.4235
     17 C         142.9746  142.7146  170.1408 C.3     1  UNL1        0.5087
     18 F         143.6440  141.4113  169.8189 F       1  UNL1       -0.1550
     19 F         143.6637  143.7141  171.0218 F       1  UNL1       -0.1550
     20 C         140.5782  139.1033  160.8593 C.3     1  UNL1        0.0747
     21 C         139.4863  138.7080  159.9098 C.3     1  UNL1        0.0369
     22 C         139.8251  138.2880  158.5102 C.3     1  UNL1        0.0741
     23 N         141.2559  138.2634  158.0601 N.3     1  UNL1       -0.2688
     24 C         142.3477  138.6587  159.0096 C.3     1  UNL1        0.0741
     25 C         142.0088  139.0787  160.4093 C.3     1  UNL1        0.0369
     26 C         141.5946  137.8435  156.6606 C.3     1  UNL1        0.0992
     27 C         141.8953  136.4047  156.3612 C.ar    1  UNL1       -0.0029
     28 C         141.0723  135.6608  155.3517 C.ar    1  UNL1        0.0004
     29 C         141.3730  134.2221  155.0523 C.ar    1  UNL1        0.0399
     30 C         142.4966  133.5272  155.7626 C.ar    1  UNL1        0.1764
     31 C         143.3196  134.2711  156.7721 C.ar    1  UNL1        0.1762
     32 C         143.0189  135.7098  157.0715 C.ar    1  UNL1        0.0373
     33 O         144.3561  133.3294  157.3098 O.3     1  UNL1       -0.4346
     34 C         144.1736  132.0035  156.6325 C.3     1  UNL1        0.4294
     35 O         143.0244  132.1258  155.6762 O.3     1  UNL1       -0.4346
@<TRIPOS>BOND
     1     1     2    2
     2     2     3   am
     3     3    20    1
     4    20    21    1
     5    21    22    1
     6    22    23    1
     7    23    26    1
     8    26    27    1
     9    27    28   ar
    10    28    29   ar
    11    29    30   ar
    12    30    31   ar
    13    31    32   ar
    14    31    33    1
    15    33    34    1
    16    34    35    1
    17    23    24    1
    18    24    25    1
    19     2     5    1
    20     5     6   ar
    21     6     7   ar
    22     7     8    2
    23     7     9   ar
    24     9    10   ar
    25    10    11   ar
    26    11    12   ar
    27    12    16    1
    28    16    17    1
    29    17    18    1
    30    17    19    1
    31    12    13   ar
    32    13    14   ar
    33    14    15   ar
    34    25    20    1
    35    15     5   ar
    36    32    27   ar
    37    14     9   ar
    38    35    30    1
    39     3     4    1
@<TRIPOS>MOLECULE
*****
 35 39 0 0 0
SMALL
GASTEIGER

@<TRIPOS>ATOM
      1 O         143.3422  143.5803  160.9244 O.2     1  UNL1       -0.2668
      2 C         142.2271  143.5848  161.9275 C.2     1  UNL1        0.2806
      3 N         140.8275  143.9027  161.4916 N.am    1  UNL1       -0.2999
      4 H         140.0955  143.9057  162.1501 H       1  UNL1        0.1498
      5 C         142.5115  143.2715  163.3667 C.ar    1  UNL1        0.2014
      6 C         143.7455  143.8159  164.0230 C.ar    1  UNL1        0.0843
      7 C         144.0300  143.5026  165.4621 C.ar    1  UNL1        0.2018
      8 O         145.2640  144.0470  166.1184 O.2     1  UNL1       -0.2864
      9 C         143.0804  142.6449  166.2448 C.ar    1  UNL1        0.0738
     10 C         143.3649  142.3316  167.6839 C.ar    1  UNL1        0.0094
     11 C         142.4153  141.4739  168.4665 C.ar    1  UNL1        0.0374
     12 C         141.1812  140.9295  167.8102 C.ar    1  UNL1        0.1473
     13 C         140.8968  141.2428  166.3711 C.ar    1  UNL1        0.0746
     14 C         141.8464  142.1005  165.5885 C.ar    1  UNL1        0.1515
     15 O         141.5619  142.4138  164.1493 O.2     1  UNL1       -0.4486
     16 O         140.2316  140.0718  168.5929 O.3     1  UNL1       -0.4235
     17 C         139.2964  140.6995  169.5835 C.3     1  UNL1        0.5087
     18 F         139.5617  142.0859  170.0912 F       1  UNL1       -0.1550
     19 F         138.0958  139.9410  170.0664 F       1  UNL1       -0.1550
     20 C         140.5430  144.2161  160.0526 C.3     1  UNL1        0.0747
     21 C         139.7451  143.2570  159.2197 C.3     1  UNL1        0.0369
     22 C         139.4607  143.5704  157.7807 C.3     1  UNL1        0.0741
     23 N         139.9741  144.8428  157.1745 N.3     1  UNL1       -0.2688
     24 C         140.7720  145.8018  158.0074 C.3     1  UNL1        0.0741
     25 C         141.0564  145.4884  159.4465 C.3     1  UNL1        0.0369
     26 C         139.6896  145.1561  155.7355 C.3     1  UNL1        0.0992
     27 C         139.6661  146.5814  155.2687 C.ar    1  UNL1       -0.0029
     28 C         140.4311  146.9816  154.0420 C.ar    1  UNL1        0.0004
     29 C         140.4076  148.4070  153.5752 C.ar    1  UNL1        0.0399
     30 C         139.6192  149.4321  154.3351 C.ar    1  UNL1        0.1764
     31 C         138.8542  149.0319  155.5617 C.ar    1  UNL1        0.1762
     32 C         138.8777  147.6066  156.0285 C.ar    1  UNL1        0.0373
     33 O         138.1720  150.2538  156.1018 O.3     1  UNL1       -0.4346
     34 C         138.5153  151.4092  155.2089 C.3     1  UNL1        0.4294
     35 O         139.4097  150.9013  154.1170 O.3     1  UNL1       -0.4346
@<TRIPOS>BOND
     1     1     2    2
     2     2     3   am
     3     3    20    1
     4    20    21    1
     5    21    22    1
     6    22    23    1
     7    23    26    1
     8    26    27    1
     9    27    28   ar
    10    28    29   ar
    11    29    30   ar
    12    30    31   ar
    13    31    32   ar
    14    31    33    1
    15    33    34    1
    16    34    35    1
    17    23    24    1
    18    24    25    1
    19     2     5    1
    20     5     6   ar
    21     6     7   ar
    22     7     8    2
    23     7     9   ar
    24     9    10   ar
    25    10    11   ar
    26    11    12   ar
    27    12    16    1
    28    16    17    1
    29    17    18    1
    30    17    19    1
    31    12    13   ar
    32    13    14   ar
    33    14    15   ar
    34    25    20    1
    35    15     5   ar
    36    32    27   ar
    37    14     9   ar
    38    35    30    1
    39     3     4    1
@<TRIPOS>MOLECULE
*****
 35 39 0 0 0
SMALL
GASTEIGER

@<TRIPOS>ATOM
      1 O         140.2257  138.2463  161.2343 O.2     1  UNL1       -0.2668
      2 C         140.3223  139.7025  160.8877 C.2     1  UNL1        0.2806
      3 N         140.7514  140.1191  159.5121 N.am    1  UNL1       -0.2999
      4 H         140.8148  141.0748  159.2846 H       1  UNL1        0.1498
      5 C         139.9899  140.7421  161.9167 C.ar    1  UNL1        0.2014
      6 C         139.0407  141.8537  161.5803 C.ar    1  UNL1        0.0843
      7 C         138.7083  142.8933  162.6092 C.ar    1  UNL1        0.2018
      8 O         137.7590  144.0049  162.2727 O.2     1  UNL1       -0.2864
      9 C         139.3251  142.8213  163.9746 C.ar    1  UNL1        0.0738
     10 C         138.9927  143.8608  165.0035 C.ar    1  UNL1        0.0094
     11 C         139.6096  143.7888  166.3689 C.ar    1  UNL1        0.0374
     12 C         140.5588  142.6772  166.7053 C.ar    1  UNL1        0.1473
     13 C         140.8912  141.6376  165.6764 C.ar    1  UNL1        0.0746
     14 C         140.2744  141.7096  164.3111 C.ar    1  UNL1        0.1515
     15 O         140.6068  140.6700  163.2820 O.2     1  UNL1       -0.4486
     16 O         141.1757  142.6051  168.0708 O.3     1  UNL1       -0.4235
     17 C         140.3931  143.0473  169.2716 C.3     1  UNL1        0.5087
     18 F         140.5495  144.4439  169.7962 F       1  UNL1       -0.1550
     19 F         139.4540  142.0930  169.9479 F       1  UNL1       -0.1550
     20 C         141.0838  139.0796  158.4831 C.3     1  UNL1        0.0747
     21 C         139.9833  138.3521  157.7692 C.3     1  UNL1        0.0369
     22 C         140.3157  137.3126  156.7402 C.3     1  UNL1        0.0741
     23 N         141.7486  137.0005  156.4250 N.3     1  UNL1       -0.2688
     24 C         142.8492  137.7280  157.1389 C.3     1  UNL1        0.0741
     25 C         142.5167  138.7675  158.1680 C.3     1  UNL1        0.0369
     26 C         142.0810  135.9610  155.3961 C.3     1  UNL1        0.0992
     27 C         142.4154  134.5626  155.8235 C.ar    1  UNL1       -0.0029
     28 C         141.5563  133.4165  155.3781 C.ar    1  UNL1        0.0004
     29 C         141.8907  132.0181  155.8055 C.ar    1  UNL1        0.0399
     30 C         143.0842  131.7658  156.6783 C.ar    1  UNL1        0.1764
     31 C         143.9433  132.9118  157.1237 C.ar    1  UNL1        0.1762
     32 C         143.6089  134.3102  156.6963 C.ar    1  UNL1        0.0373
     33 O         145.0478  132.3596  157.9753 O.3     1  UNL1       -0.4346
     34 C         144.8712  130.8723  158.0562 C.3     1  UNL1        0.4294
     35 O         143.6577  130.5053  157.2546 O.3     1  UNL1       -0.4346
@<TRIPOS>BOND
     1     1     2    2
     2     2     3   am
     3     3    20    1
     4    20    21    1
     5    21    22    1
     6    22    23    1
     7    23    26    1
     8    26    27    1
     9    27    28   ar
    10    28    29   ar
    11    29    30   ar
    12    30    31   ar
    13    31    32   ar
    14    31    33    1
    15    33    34    1
    16    34    35    1
    17    23    24    1
    18    24    25    1
    19     2     5    1
    20     5     6   ar
    21     6     7   ar
    22     7     8    2
    23     7     9   ar
    24     9    10   ar
    25    10    11   ar
    26    11    12   ar
    27    12    16    1
    28    16    17    1
    29    17    18    1
    30    17    19    1
    31    12    13   ar
    32    13    14   ar
    33    14    15   ar
    34    25    20    1
    35    15     5   ar
    36    32    27   ar
    37    14     9   ar
    38    35    30    1
    39     3     4    1
@<TRIPOS>MOLECULE
*****
 35 39 0 0 0
SMALL
GASTEIGER

@<TRIPOS>ATOM
      1 O         138.8302  144.6946  161.5760 O.2     1  UNL1       -0.2668
      2 C         139.5144  143.3600  161.6032 C.2     1  UNL1        0.2806
      3 N         140.2127  142.8500  160.3775 N.am    1  UNL1       -0.2999
      4 H         140.6617  141.9741  160.3954 H       1  UNL1        0.1498
      5 C         139.5004  142.5354  162.8562 C.ar    1  UNL1        0.2014
      6 C         139.0260  141.1131  162.8127 C.ar    1  UNL1        0.0843
      7 C         139.0119  140.2885  164.0656 C.ar    1  UNL1        0.2018
      8 O         138.5376  138.8661  164.0221 O.2     1  UNL1       -0.2864
      9 C         139.4723  140.8862  165.3621 C.ar    1  UNL1        0.0738
     10 C         139.4582  140.0616  166.6150 C.ar    1  UNL1        0.0094
     11 C         139.9186  140.6594  167.9114 C.ar    1  UNL1        0.0374
     12 C         140.3930  142.0817  167.9549 C.ar    1  UNL1        0.1473
     13 C         140.4070  142.9063  166.7020 C.ar    1  UNL1        0.0746
     14 C         139.9467  142.3086  165.4056 C.ar    1  UNL1        0.1515
     15 O         139.9607  143.1332  164.1526 O.2     1  UNL1       -0.4486
     16 O         140.8533  142.6794  169.2514 O.3     1  UNL1       -0.4235
     17 C         140.1303  142.3556  170.5252 C.3     1  UNL1        0.5087
     18 F         139.1694  143.3452  171.1146 F       1  UNL1       -0.1550
     19 F         140.3683  141.0422  171.2096 F       1  UNL1       -0.1550
     20 C         140.2267  143.6745  159.1246 C.3     1  UNL1        0.0747
     21 C         141.1725  144.8320  158.9990 C.3     1  UNL1        0.0369
     22 C         141.1866  145.6565  157.7461 C.3     1  UNL1        0.0741
     23 N         140.2548  145.3236  156.6186 N.3     1  UNL1       -0.2688
     24 C         139.3091  144.1661  156.7442 C.3     1  UNL1        0.0741
     25 C         139.2950  143.3416  157.9972 C.3     1  UNL1        0.0369
     26 C         140.2689  146.1481  155.3657 C.3     1  UNL1        0.0992
     27 C         139.7333  147.5491  155.3837 C.ar    1  UNL1       -0.0029
     28 C         138.8971  148.0175  156.5375 C.ar    1  UNL1        0.0004
     29 C         138.3615  149.4185  156.5556 C.ar    1  UNL1        0.0399
     30 C         138.6621  150.3511  155.4198 C.ar    1  UNL1        0.1764
     31 C         139.4983  149.8827  154.2661 C.ar    1  UNL1        0.1762
     32 C         140.0339  148.4817  154.2480 C.ar    1  UNL1        0.0373
     33 O         139.6277  151.0193  153.2957 O.3     1  UNL1       -0.4346
     34 C         138.8714  152.1901  153.8499 C.3     1  UNL1        0.4294
     35 O         138.2747  151.7772  155.1626 O.3     1  UNL1       -0.4346
@<TRIPOS>BOND
     1     1     2    2
     2     2     3   am
     3     3    20    1
     4    20    21    1
     5    21    22    1
     6    22    23    1
     7    23    26    1
     8    26    27    1
     9    27    28   ar
    10    28    29   ar
    11    29    30   ar
    12    30    31   ar
    13    31    32   ar
    14    31    33    1
    15    33    34    1
    16    34    35    1
    17    23    24    1
    18    24    25    1
    19     2     5    1
    20     5     6   ar
    21     6     7   ar
    22     7     8    2
    23     7     9   ar
    24     9    10   ar
    25    10    11   ar
    26    11    12   ar
    27    12    16    1
    28    16    17    1
    29    17    18    1
    30    17    19    1
    31    12    13   ar
    32    13    14   ar
    33    14    15   ar
    34    25    20    1
    35    15     5   ar
    36    32    27   ar
    37    14     9   ar
    38    35    30    1
    39     3     4    1
@<TRIPOS>MOLECULE
*****
 35 39 0 0 0
SMALL
GASTEIGER

@<TRIPOS>ATOM
      1 O         143.7952  139.2915  158.8757 O.2     1  UNL1       -0.2668
      2 C         142.7652  138.2178  159.0655 C.2     1  UNL1        0.2806
      3 N         142.1337  138.0136  160.4107 N.am    1  UNL1       -0.2999
      4 H         141.4576  137.3088  160.5352 H       1  UNL1        0.1498
      5 C         142.3666  137.3482  157.9100 C.ar    1  UNL1        0.2014
      6 C         141.2260  137.7541  157.0244 C.ar    1  UNL1        0.0843
      7 C         140.8273  136.8846  155.8690 C.ar    1  UNL1        0.2018
      8 O         139.6867  137.2905  154.9834 O.2     1  UNL1       -0.2864
      9 C         141.5693  135.6091  155.5992 C.ar    1  UNL1        0.0738
     10 C         141.1706  134.7396  154.4438 C.ar    1  UNL1        0.0094
     11 C         141.9126  133.4643  154.1740 C.ar    1  UNL1        0.0374
     12 C         143.0532  133.0584  155.0596 C.ar    1  UNL1        0.1473
     13 C         143.4518  133.9279  156.2150 C.ar    1  UNL1        0.0746
     14 C         142.7099  135.2033  156.4848 C.ar    1  UNL1        0.1515
     15 O         143.1085  136.0728  157.6402 O.2     1  UNL1       -0.4486
     16 O         143.7952  131.7829  154.7897 O.3     1  UNL1       -0.4235
     17 C         144.5209  131.0875  155.9031 C.3     1  UNL1        0.5087
     18 F         145.7435  131.7125  156.5070 F       1  UNL1       -0.1550
     19 F         144.0241  129.7670  156.4125 F       1  UNL1       -0.1550
     20 C         142.5323  138.8831  161.5661 C.3     1  UNL1        0.0747
     21 C         143.8407  138.6520  162.2623 C.3     1  UNL1        0.0369
     22 C         144.2392  139.5215  163.4177 C.3     1  UNL1        0.0741
     23 N         143.3294  140.6222  163.8770 N.3     1  UNL1       -0.2688
     24 C         142.0210  140.8533  163.1808 C.3     1  UNL1        0.0741
     25 C         141.6225  139.9837  162.0253 C.3     1  UNL1        0.0369
     26 C         143.7280  141.4917  165.0324 C.3     1  UNL1        0.0992
     27 C         143.2209  141.1865  166.4107 C.ar    1  UNL1       -0.0029
     28 C         142.8566  139.7794  166.7813 C.ar    1  UNL1        0.0004
     29 C         142.3495  139.4742  168.1596 C.ar    1  UNL1        0.0399
     30 C         142.2066  140.5760  169.1673 C.ar    1  UNL1        0.1764
     31 C         142.5709  141.9831  168.7967 C.ar    1  UNL1        0.1762
     32 C         143.0781  142.2883  167.4184 C.ar    1  UNL1        0.0373
     33 O         142.3267  142.8555  169.9923 O.3     1  UNL1       -0.4346
     34 C         141.8114  141.9875  171.1018 C.3     1  UNL1        0.4294
     35 O         141.7372  140.5787  170.5919 O.3     1  UNL1       -0.4346
@<TRIPOS>BOND
     1     1     2    2
     2     2     3   am
     3     3    20    1
     4    20    21    1
     5    21    22    1
     6    22    23    1
     7    23    26    1
     8    26    27    1
     9    27    28   ar
    10    28    29   ar
    11    29    30   ar
    12    30    31   ar
    13    31    32   ar
    14    31    33    1
    15    33    34    1
    16    34    35    1
    17    23    24    1
    18    24    25    1
    19     2     5    1
    20     5     6   ar
    21     6     7   ar
    22     7     8    2
    23     7     9   ar
    24     9    10   ar
    25    10    11   ar
    26    11    12   ar
    27    12    16    1
    28    16    17    1
    29    17    18    1
    30    17    19    1
    31    12    13   ar
    32    13    14   ar
    33    14    15   ar
    34    25    20    1
    35    15     5   ar
    36    32    27   ar
    37    14     9   ar
    38    35    30    1
    39     3     4    1
@<TRIPOS>MOLECULE
*****
 35 39 0 0 0
SMALL
GASTEIGER

@<TRIPOS>ATOM
      1 O         143.4119  138.2629  162.2956 O.2     1  UNL1       -0.2668
      2 C         142.8145  139.6311  162.4406 C.2     1  UNL1        0.2806
      3 N         142.1209  140.2740  161.2763 N.am    1  UNL1       -0.2999
      4 H         141.7289  141.1720  161.3715 H       1  UNL1        0.1498
      5 C         142.9108  140.3566  163.7501 C.ar    1  UNL1        0.2014
      6 C         143.8108  141.5494  163.8822 C.ar    1  UNL1        0.0843
      7 C         143.9070  142.2748  165.1915 C.ar    1  UNL1        0.2018
      8 O         144.8070  143.4676  165.3237 O.2     1  UNL1       -0.2864
      9 C         143.1034  141.8076  166.3688 C.ar    1  UNL1        0.0738
     10 C         143.1996  142.5331  167.6781 C.ar    1  UNL1        0.0094
     11 C         142.3960  142.0658  168.8553 C.ar    1  UNL1        0.0374
     12 C         141.4960  140.8731  168.7231 C.ar    1  UNL1        0.1473
     13 C         141.3997  140.1476  167.4138 C.ar    1  UNL1        0.0746
     14 C         142.2034  140.6149  166.2366 C.ar    1  UNL1        0.1515
     15 O         142.1071  139.8894  164.9272 O.2     1  UNL1       -0.4486
     16 O         140.6923  140.4058  169.9003 O.3     1  UNL1       -0.4235
     17 C         139.2701  140.8539  170.0629 C.3     1  UNL1        0.5087
     18 F         138.9715  142.2478  170.5298 F       1  UNL1       -0.1550
     19 F         138.1464  139.9080  169.7585 F       1  UNL1       -0.1550
     20 C         142.0247  139.5486  159.9669 C.3     1  UNL1        0.0747
     21 C         140.7416  138.8788  159.5732 C.3     1  UNL1        0.0369
     22 C         140.6453  138.1534  158.2638 C.3     1  UNL1        0.0741
     23 N         141.8321  138.0977  157.3482 N.3     1  UNL1       -0.2688
     24 C         143.1152  138.7675  157.7419 C.3     1  UNL1        0.0741
     25 C         143.2115  139.4929  159.0514 C.3     1  UNL1        0.0369
     26 C         141.7359  137.3723  156.0388 C.3     1  UNL1        0.0992
     27 C         141.9315  135.8860  155.9887 C.ar    1  UNL1       -0.0029
     28 C         141.1175  135.0538  155.0426 C.ar    1  UNL1        0.0004
     29 C         141.3131  133.5675  154.9925 C.ar    1  UNL1        0.0399
     30 C         142.3227  132.9133  155.8884 C.ar    1  UNL1        0.1764
     31 C         143.1366  133.7454  156.8345 C.ar    1  UNL1        0.1762
     32 C         142.9410  135.2317  156.8846 C.ar    1  UNL1        0.0373
     33 O         144.0500  132.8271  157.5913 O.3     1  UNL1       -0.4346
     34 C         143.8004  131.4275  157.1130 C.3     1  UNL1        0.4294
     35 O         142.7329  131.4808  156.0605 O.3     1  UNL1       -0.4346
@<TRIPOS>BOND
     1     1     2    2
     2     2     3   am
     3     3    20    1
     4    20    21    1
     5    21    22    1
     6    22    23    1
     7    23    26    1
     8    26    27    1
     9    27    28   ar
    10    28    29   ar
    11    29    30   ar
    12    30    31   ar
    13    31    32   ar
    14    31    33    1
    15    33    34    1
    16    34    35    1
    17    23    24    1
    18    24    25    1
    19     2     5    1
    20     5     6   ar
    21     6     7   ar
    22     7     8    2
    23     7     9   ar
    24     9    10   ar
    25    10    11   ar
    26    11    12   ar
    27    12    16    1
    28    16    17    1
    29    17    18    1
    30    17    19    1
    31    12    13   ar
    32    13    14   ar
    33    14    15   ar
    34    25    20    1
    35    15     5   ar
    36    32    27   ar
    37    14     9   ar
    38    35    30    1
    39     3     4    1
@<TRIPOS>MOLECULE
*****
 35 39 0 0 0
SMALL
GASTEIGER

@<TRIPOS>ATOM
      1 O         143.8472  139.3810  158.9489 O.2     1  UNL1       -0.2668
      2 C         142.7856  138.3234  159.0154 C.2     1  UNL1        0.2806
      3 N         142.0699  138.0592  160.3069 N.am    1  UNL1       -0.2999
      4 H         141.3732  137.3650  160.3505 H       1  UNL1        0.1498
      5 C         142.4397  137.5298  157.7903 C.ar    1  UNL1        0.2014
      6 C         141.4979  138.0976  156.7702 C.ar    1  UNL1        0.0843
      7 C         141.1519  137.3041  155.5452 C.ar    1  UNL1        0.2018
      8 O         140.2101  137.8718  154.5250 O.2     1  UNL1       -0.2864
      9 C         141.7478  135.9429  155.3402 C.ar    1  UNL1        0.0738
     10 C         141.4019  135.1494  154.1152 C.ar    1  UNL1        0.0094
     11 C         141.9978  133.7882  153.9103 C.ar    1  UNL1        0.0374
     12 C         142.9396  133.2205  154.9304 C.ar    1  UNL1        0.1473
     13 C         143.2856  134.0139  156.1554 C.ar    1  UNL1        0.0746
     14 C         142.6897  135.3751  156.3603 C.ar    1  UNL1        0.1515
     15 O         143.0356  136.1687  157.5854 O.2     1  UNL1       -0.4486
     16 O         143.5356  131.8592  154.7254 O.3     1  UNL1       -0.4235
     17 C         144.2941  131.1974  155.8374 C.3     1  UNL1        0.5087
     18 F         145.6092  131.7612  156.2876 F       1  UNL1       -0.1550
     19 F         143.7376  129.9717  156.4993 F       1  UNL1       -0.1550
     20 C         142.4158  138.8527  161.5319 C.3     1  UNL1        0.0747
     21 C         143.3909  138.3035  162.5307 C.3     1  UNL1        0.0369
     22 C         143.7368  139.0969  163.7557 C.3     1  UNL1        0.0741
     23 N         143.1075  140.4397  163.9820 N.3     1  UNL1       -0.2688
     24 C         142.1324  140.9889  162.9832 C.3     1  UNL1        0.0741
     25 C         141.7865  140.1953  161.7582 C.3     1  UNL1        0.0369
     26 C         143.4534  141.2332  165.2070 C.3     1  UNL1        0.0992
     27 C         142.4735  141.3312  166.3385 C.ar    1  UNL1       -0.0029
     28 C         141.4971  142.4687  166.3886 C.ar    1  UNL1        0.0004
     29 C         140.5172  142.5667  167.5201 C.ar    1  UNL1        0.0399
     30 C         140.5138  141.5272  168.6015 C.ar    1  UNL1        0.1764
     31 C         141.4903  140.3898  168.5514 C.ar    1  UNL1        0.1762
     32 C         142.4702  140.2917  167.4199 C.ar    1  UNL1        0.0373
     33 O         141.2522  139.5212  169.7511 O.3     1  UNL1       -0.4346
     34 C         140.1286  140.1220  170.5425 C.3     1  UNL1        0.4294
     35 O         139.6722  141.3618  169.8321 O.3     1  UNL1       -0.4346
@<TRIPOS>BOND
     1     1     2    2
     2     2     3   am
     3     3    20    1
     4    20    21    1
     5    21    22    1
     6    22    23    1
     7    23    26    1
     8    26    27    1
     9    27    28   ar
    10    28    29   ar
    11    29    30   ar
    12    30    31   ar
    13    31    32   ar
    14    31    33    1
    15    33    34    1
    16    34    35    1
    17    23    24    1
    18    24    25    1
    19     2     5    1
    20     5     6   ar
    21     6     7   ar
    22     7     8    2
    23     7     9   ar
    24     9    10   ar
    25    10    11   ar
    26    11    12   ar
    27    12    16    1
    28    16    17    1
    29    17    18    1
    30    17    19    1
    31    12    13   ar
    32    13    14   ar
    33    14    15   ar
    34    25    20    1
    35    15     5   ar
    36    32    27   ar
    37    14     9   ar
    38    35    30    1
    39     3     4    1
@<TRIPOS>MOLECULE
*****
 35 39 0 0 0
SMALL
GASTEIGER

@<TRIPOS>ATOM
      1 O         141.7346  140.8759  161.6666 O.2     1  UNL1       -0.2668
      2 C         140.6322  141.4923  162.4758 C.2     1  UNL1        0.2806
      3 N         139.7314  142.5195  161.8565 N.am    1  UNL1       -0.2999
      4 H         139.0079  142.9240  162.3877 H       1  UNL1        0.1498
      5 C         140.4306  141.0815  163.9043 C.ar    1  UNL1        0.2014
      6 C         139.1542  140.4115  164.3190 C.ar    1  UNL1        0.0843
      7 C         138.9525  140.0007  165.7475 C.ar    1  UNL1        0.2018
      8 O         137.6761  139.3307  166.1621 O.2     1  UNL1       -0.2864
      9 C         140.0273  140.2598  166.7613 C.ar    1  UNL1        0.0738
     10 C         139.8256  139.8490  168.1898 C.ar    1  UNL1        0.0094
     11 C         140.9004  140.1081  169.2035 C.ar    1  UNL1        0.0374
     12 C         142.1767  140.7781  168.7888 C.ar    1  UNL1        0.1473
     13 C         142.3784  141.1889  167.3604 C.ar    1  UNL1        0.0746
     14 C         141.3037  140.9298  166.3466 C.ar    1  UNL1        0.1515
     15 O         141.5053  141.3406  164.9181 O.2     1  UNL1       -0.4486
     16 O         143.2515  141.0372  169.8027 O.3     1  UNL1       -0.4235
     17 C         143.6884  142.4431  170.0898 C.3     1  UNL1        0.5087
     18 F         142.6670  143.4985  170.3949 F       1  UNL1       -0.1550
     19 F         145.1468  142.7938  170.0718 F       1  UNL1       -0.1550
     20 C         139.9330  142.9303  160.4281 C.3     1  UNL1        0.0747
     21 C         138.9283  142.5376  159.3858 C.3     1  UNL1        0.0369
     22 C         139.1299  142.9484  157.9573 C.3     1  UNL1        0.0741
     23 N         140.3362  143.7520  157.5711 N.3     1  UNL1       -0.2688
     24 C         141.3409  144.1447  158.6134 C.3     1  UNL1        0.0741
     25 C         141.1393  143.7338  160.0419 C.3     1  UNL1        0.0369
     26 C         140.5378  144.1629  156.1426 C.3     1  UNL1        0.0992
     27 C         140.2206  145.5647  155.7135 C.ar    1  UNL1       -0.0029
     28 C         140.6754  146.0596  154.3726 C.ar    1  UNL1        0.0004
     29 C         140.3582  147.4615  153.9434 C.ar    1  UNL1        0.0399
     30 C         139.5862  148.3685  154.8552 C.ar    1  UNL1        0.1764
     31 C         139.1314  147.8735  156.1962 C.ar    1  UNL1        0.1762
     32 C         139.4486  146.4717  156.6253 C.ar    1  UNL1        0.0373
     33 O         138.3928  148.9884  156.8757 O.3     1  UNL1       -0.4346
     34 C         138.3911  150.1723  155.9546 C.3     1  UNL1        0.4294
     35 O         139.1287  149.7891  154.7059 O.3     1  UNL1       -0.4346
@<TRIPOS>BOND
     1     1     2    2
     2     2     3   am
     3     3    20    1
     4    20    21    1
     5    21    22    1
     6    22    23    1
     7    23    26    1
     8    26    27    1
     9    27    28   ar
    10    28    29   ar
    11    29    30   ar
    12    30    31   ar
    13    31    32   ar
    14    31    33    1
    15    33    34    1
    16    34    35    1
    17    23    24    1
    18    24    25    1
    19     2     5    1
    20     5     6   ar
    21     6     7   ar
    22     7     8    2
    23     7     9   ar
    24     9    10   ar
    25    10    11   ar
    26    11    12   ar
    27    12    16    1
    28    16    17    1
    29    17    18    1
    30    17    19    1
    31    12    13   ar
    32    13    14   ar
    33    14    15   ar
    34    25    20    1
    35    15     5   ar
    36    32    27   ar
    37    14     9   ar
    38    35    30    1
    39     3     4    1
@<TRIPOS>MOLECULE
*****
 35 39 0 0 0
SMALL
GASTEIGER

@<TRIPOS>ATOM
      1 O         141.1040  138.5007  159.4556 O.2     1  UNL1       -0.2668
      2 C         142.3351  138.1549  158.6716 C.2     1  UNL1        0.2806
      3 N         143.6250  138.8692  158.9472 N.am    1  UNL1       -0.2999
      4 H         144.4331  138.6422  158.4326 H       1  UNL1        0.1498
      5 C         142.2764  137.0948  157.6119 C.ar    1  UNL1        0.2014
      6 C         141.3347  137.2434  156.4539 C.ar    1  UNL1        0.0843
      7 C         141.2759  136.1834  155.3942 C.ar    1  UNL1        0.2018
      8 O         140.3343  136.3319  154.2361 O.2     1  UNL1       -0.2864
      9 C         142.1589  134.9747  155.4927 C.ar    1  UNL1        0.0738
     10 C         142.1001  133.9147  154.4330 C.ar    1  UNL1        0.0094
     11 C         142.9830  132.7061  154.5315 C.ar    1  UNL1        0.0374
     12 C         143.9247  132.5575  155.6896 C.ar    1  UNL1        0.1473
     13 C         143.9835  133.6175  156.7492 C.ar    1  UNL1        0.0746
     14 C         143.1005  134.8261  156.6508 C.ar    1  UNL1        0.1515
     15 O         143.1593  135.8862  157.7104 O.2     1  UNL1       -0.4486
     16 O         144.8076  131.3488  155.7880 O.3     1  UNL1       -0.4235
     17 C         144.5094  130.2826  156.8000 C.3     1  UNL1        0.5087
     18 F         143.5906  129.1503  156.4479 F       1  UNL1       -0.1550
     19 F         145.1298  130.3485  158.1641 F       1  UNL1       -0.1550
     20 C         143.6838  139.9292  160.0068 C.3     1  UNL1        0.0747
     21 C         143.3580  141.3524  159.6628 C.3     1  UNL1        0.0369
     22 C         143.4168  142.4125  160.7224 C.3     1  UNL1        0.0741
     23 N         143.8014  142.0494  162.1261 N.3     1  UNL1       -0.2688
     24 C         144.1272  140.6262  162.4701 C.3     1  UNL1        0.0741
     25 C         144.0684  139.5661  161.4104 C.3     1  UNL1        0.0369
     26 C         143.8602  143.1094  163.1856 C.3     1  UNL1        0.0992
     27 C         143.1604  142.8999  164.4958 C.ar    1  UNL1       -0.0029
     28 C         141.6731  142.7081  164.5294 C.ar    1  UNL1        0.0004
     29 C         140.9734  142.4986  165.8395 C.ar    1  UNL1        0.0399
     30 C         141.7609  142.4810  167.1160 C.ar    1  UNL1        0.1764
     31 C         143.2481  142.6728  167.0824 C.ar    1  UNL1        0.1762
     32 C         143.9479  142.8823  165.7723 C.ar    1  UNL1        0.0373
     33 O         143.7560  142.6074  168.4924 O.3     1  UNL1       -0.4346
     34 C         142.5826  142.3751  169.3973 C.3     1  UNL1        0.4294
     35 O         141.3495  142.2970  168.5467 O.3     1  UNL1       -0.4346
@<TRIPOS>BOND
     1     1     2    2
     2     2     3   am
     3     3    20    1
     4    20    21    1
     5    21    22    1
     6    22    23    1
     7    23    26    1
     8    26    27    1
     9    27    28   ar
    10    28    29   ar
    11    29    30   ar
    12    30    31   ar
    13    31    32   ar
    14    31    33    1
    15    33    34    1
    16    34    35    1
    17    23    24    1
    18    24    25    1
    19     2     5    1
    20     5     6   ar
    21     6     7   ar
    22     7     8    2
    23     7     9   ar
    24     9    10   ar
    25    10    11   ar
    26    11    12   ar
    27    12    16    1
    28    16    17    1
    29    17    18    1
    30    17    19    1
    31    12    13   ar
    32    13    14   ar
    33    14    15   ar
    34    25    20    1
    35    15     5   ar
    36    32    27   ar
    37    14     9   ar
    38    35    30    1
    39     3     4    1
