@<TRIPOS>MOLECULE
*****
 30 32 0 0 0
SMALL
GASTEIGER

@<TRIPOS>ATOM
      1 C         139.3989  143.7035  158.0267 C.ar    1  UNL1        0.0625
      2 C         140.4378  144.6311  157.4697 C.ar    1  UNL1        0.0452
      3 C         141.4066  145.3118  158.3906 C.ar    1  UNL1        0.1415
      4 F         142.4455  146.2395  157.8335 F       1  UNL1       -0.2041
      5 C         141.3366  145.0649  159.8684 C.ar    1  UNL1        0.0337
      6 C         140.2978  144.1372  160.4254 C.ar    1  UNL1        0.0492
      7 C         140.2277  143.8903  161.9033 C.2     1  UNL1        0.1296
      8 O         141.1965  144.5710  162.8242 O.2     1  UNL1       -0.5088
      9 C         139.1889  142.9626  162.4603 C.3     1  UNL1        0.2107
     10 C         138.2201  142.2819  161.5394 C.2     1  UNL1        0.2613
     11 O         137.1812  141.3542  162.0965 O.2     1  UNL1       -0.2720
     12 N         138.2901  142.5289  160.0616 N.am    1  UNL1       -0.1771
     13 C         139.3289  143.4565  159.5045 C.ar    1  UNL1        0.0891
     14 H         141.8455  145.1504  162.4763 H       1  UNL1        0.2917
     15 C         139.1188  142.7156  163.9382 C.2     1  UNL1        0.2418
     16 O         137.9124  143.1524  164.7152 O.2     1  UNL1       -0.2738
     17 N         140.2552  142.0319  164.6390 N.am    1  UNL1       -0.2832
     18 H         141.0470  141.7452  164.1291 H       1  UNL1        0.1549
     19 C         140.1851  141.7850  166.1169 C.ar    1  UNL1        0.0503
     20 C         140.5863  142.8649  167.0776 C.ar    1  UNL1        0.0147
     21 C         140.5162  142.6179  168.5555 C.ar    1  UNL1        0.0024
     22 C         140.0449  141.2911  169.0727 C.ar    1  UNL1        0.0141
     23 C         139.6437  140.2113  168.1120 C.ar    1  UNL1        0.0024
     24 C         139.7138  140.4582  166.6341 C.ar    1  UNL1        0.0147
     25 C         139.9749  141.0442  170.5505 C.2     1  UNL1        0.0729
     26 O         139.5991  139.6870  171.0671 O.co2   1  UNL1       -0.5446
     27 O         140.2805  142.1544  171.5118 O.co2   1  UNL1       -0.5446
     28 C         138.2068  143.5588  155.7228 C.3     1  UNL1        0.1086
     29 N         138.4301  143.0228  157.1058 N.pl3   1  UNL1       -0.3302
     30 H         137.9408  142.2241  157.4091 H       1  UNL1        0.1469
@<TRIPOS>UNITY_ATOM_ATTR
26 1
charge -1
@<TRIPOS>BOND
     1    28    29    1
     2    29     1    1
     3     1     2   ar
     4     2     3   ar
     5     3     4    1
     6     3     5   ar
     7     5     6   ar
     8     6     7    2
     9     7     8    1
    10     7     9    1
    11     9    15    1
    12    15    16    2
    13    15    17   am
    14    17    19    1
    15    19    20   ar
    16    20    21   ar
    17    21    22   ar
    18    22    25    1
    19    25    26   ar
    20    25    27   ar
    21    22    23   ar
    22    23    24   ar
    23     9    10    1
    24    10    11    2
    25    10    12    1
    26    12    13    2
    27    13     1   ar
    28    13     6   ar
    29    24    19   ar
    30    29    30    1
    31     8    14    1
    32    17    18    1
@<TRIPOS>MOLECULE
*****
 30 32 0 0 0
SMALL
GASTEIGER

@<TRIPOS>ATOM
      1 C         141.4510  144.9159  158.7454 C.ar    1  UNL1        0.0625
      2 C         142.4628  144.3698  157.7820 C.ar    1  UNL1        0.0452
      3 C         143.4766  143.3670  158.2474 C.ar    1  UNL1        0.1415
      4 F         144.4884  142.8209  157.2840 F       1  UNL1       -0.2041
      5 C         143.4786  142.9102  159.6762 C.ar    1  UNL1        0.0337
      6 C         142.4668  143.4563  160.6395 C.ar    1  UNL1        0.0492
      7 C         142.4688  142.9995  162.0683 C.2     1  UNL1        0.1296
      8 O         143.4826  141.9967  162.5337 O.2     1  UNL1       -0.5088
      9 C         141.4570  143.5456  163.0317 C.3     1  UNL1        0.2107
     10 C         140.4432  144.5484  162.5663 C.2     1  UNL1        0.2613
     11 O         139.4314  145.0945  163.5297 O.2     1  UNL1       -0.2720
     12 N         140.4412  145.0052  161.1375 N.am    1  UNL1       -0.1771
     13 C         141.4530  144.4591  160.1741 C.ar    1  UNL1        0.0891
     14 H         144.1146  141.6556  161.9319 H       1  UNL1        0.2917
     15 C         141.4590  143.0889  164.4605 C.2     1  UNL1        0.2418
     16 O         142.7483  143.0195  165.2239 O.2     1  UNL1       -0.2738
     17 N         140.1716  142.7015  165.1258 N.am    1  UNL1       -0.2832
     18 H         139.3254  142.7470  164.6247 H       1  UNL1        0.1549
     19 C         140.1737  142.2447  166.5545 C.ar    1  UNL1        0.0503
     20 C         139.9836  140.7923  166.8779 C.ar    1  UNL1        0.0147
     21 C         139.9856  140.3356  168.3067 C.ar    1  UNL1        0.0024
     22 C         140.1777  141.3312  169.4121 C.ar    1  UNL1        0.0141
     23 C         140.3677  142.7835  169.0887 C.ar    1  UNL1        0.0024
     24 C         140.3657  143.2403  167.6599 C.ar    1  UNL1        0.0147
     25 C         140.1797  140.8745  170.8408 C.2     1  UNL1        0.0729
     26 O         139.6274  139.5264  171.1981 O.co2   1  UNL1       -0.5446
     27 O         140.7340  141.7659  171.9124 O.co2   1  UNL1       -0.5446
     28 C         140.0601  145.9863  156.8298 C.3     1  UNL1        0.1086
     29 N         140.4373  145.9187  158.2800 N.pl3   1  UNL1       -0.3302
     30 H         140.0194  146.5326  158.9264 H       1  UNL1        0.1469
@<TRIPOS>UNITY_ATOM_ATTR
26 1
charge -1
@<TRIPOS>BOND
     1    28    29    1
     2    29     1    1
     3     1     2   ar
     4     2     3   ar
     5     3     4    1
     6     3     5   ar
     7     5     6   ar
     8     6     7    2
     9     7     8    1
    10     7     9    1
    11     9    15    1
    12    15    16    2
    13    15    17   am
    14    17    19    1
    15    19    20   ar
    16    20    21   ar
    17    21    22   ar
    18    22    25    1
    19    25    26   ar
    20    25    27   ar
    21    22    23   ar
    22    23    24   ar
    23     9    10    1
    24    10    11    2
    25    10    12    1
    26    12    13    2
    27    13     1   ar
    28    13     6   ar
    29    24    19   ar
    30    29    30    1
    31     8    14    1
    32    17    18    1
@<TRIPOS>MOLECULE
*****
 30 32 0 0 0
SMALL
GASTEIGER

@<TRIPOS>ATOM
      1 C         143.3463  143.3936  158.1797 C.ar    1  UNL1        0.0625
      2 C         143.7500  142.4381  157.0963 C.ar    1  UNL1        0.0452
      3 C         144.2353  141.0637  157.4508 C.ar    1  UNL1        0.1415
      4 F         144.6389  140.1082  156.3672 F       1  UNL1       -0.2041
      5 C         144.3168  140.6449  158.8888 C.ar    1  UNL1        0.0337
      6 C         143.9131  141.6004  159.9723 C.ar    1  UNL1        0.0492
      7 C         143.9947  141.1816  161.4104 C.2     1  UNL1        0.1296
      8 O         144.4799  139.8073  161.7649 O.2     1  UNL1       -0.5088
      9 C         143.5910  142.1372  162.4938 C.3     1  UNL1        0.2107
     10 C         143.1057  143.5115  162.1393 C.2     1  UNL1        0.2613
     11 O         142.7021  144.4671  163.2229 O.2     1  UNL1       -0.2720
     12 N         143.0242  143.9304  160.7013 N.am    1  UNL1       -0.1771
     13 C         143.4279  142.9748  159.6177 C.ar    1  UNL1        0.0891
     14 H         144.7321  139.2104  161.0881 H       1  UNL1        0.2917
     15 C         143.6725  141.7184  163.9319 C.2     1  UNL1        0.2418
     16 O         144.9272  141.0880  164.4595 O.2     1  UNL1       -0.2738
     17 N         142.4994  141.9299  164.8424 N.am    1  UNL1       -0.2832
     18 H         141.6759  142.3436  164.4961 H       1  UNL1        0.1549
     19 C         142.5810  141.5111  166.2804 C.ar    1  UNL1        0.0503
     20 C         143.1756  142.4380  167.2989 C.ar    1  UNL1        0.0147
     21 C         143.2572  142.0192  168.7369 C.ar    1  UNL1        0.0024
     22 C         142.7442  140.6735  169.1565 C.ar    1  UNL1        0.0141
     23 C         142.1495  139.7467  168.1380 C.ar    1  UNL1        0.0024
     24 C         142.0679  140.1655  166.6999 C.ar    1  UNL1        0.0147
     25 C         142.8257  140.2547  170.5945 C.2     1  UNL1        0.0729
     26 O         141.9192  140.8829  171.6112 O.co2   1  UNL1       -0.5446
     27 O         143.8139  139.2078  171.0158 O.co2   1  UNL1       -0.5446
     28 C         141.7442  144.9377  156.8385 C.3     1  UNL1        0.1086
     29 N         142.8611  144.7680  157.8252 N.pl3   1  UNL1       -0.3302
     30 H         143.2757  145.5587  158.2402 H       1  UNL1        0.1469
@<TRIPOS>UNITY_ATOM_ATTR
26 1
charge -1
@<TRIPOS>BOND
     1    28    29    1
     2    29     1    1
     3     1     2   ar
     4     2     3   ar
     5     3     4    1
     6     3     5   ar
     7     5     6   ar
     8     6     7    2
     9     7     8    1
    10     7     9    1
    11     9    15    1
    12    15    16    2
    13    15    17   am
    14    17    19    1
    15    19    20   ar
    16    20    21   ar
    17    21    22   ar
    18    22    25    1
    19    25    26   ar
    20    25    27   ar
    21    22    23   ar
    22    23    24   ar
    23     9    10    1
    24    10    11    2
    25    10    12    1
    26    12    13    2
    27    13     1   ar
    28    13     6   ar
    29    24    19   ar
    30    29    30    1
    31     8    14    1
    32    17    18    1
@<TRIPOS>MOLECULE
*****
 30 32 0 0 0
SMALL
GASTEIGER

@<TRIPOS>ATOM
      1 C         139.1492  139.5823  158.1990 C.ar    1  UNL1        0.0625
      2 C         138.8536  140.6209  157.1579 C.ar    1  UNL1        0.0452
      3 C         138.5173  142.0230  157.5716 C.ar    1  UNL1        0.1415
      4 F         138.2216  143.0616  156.5304 F       1  UNL1       -0.2041
      5 C         138.4767  142.3864  159.0263 C.ar    1  UNL1        0.0337
      6 C         138.7723  141.3478  160.0673 C.ar    1  UNL1        0.0492
      7 C         138.7317  141.7112  161.5221 C.2     1  UNL1        0.1296
      8 O         138.3954  143.1133  161.9358 O.2     1  UNL1       -0.5088
      9 C         139.0274  140.6726  162.5631 C.3     1  UNL1        0.2107
     10 C         139.3636  139.2705  162.1495 C.2     1  UNL1        0.2613
     11 O         139.6593  138.2319  163.1906 O.2     1  UNL1       -0.2720
     12 N         139.4043  138.9071  160.6948 N.am    1  UNL1       -0.1771
     13 C         139.1086  139.9457  159.6537 C.ar    1  UNL1        0.0891
     14 H         138.2107  143.7621  161.2854 H       1  UNL1        0.2917
     15 C         138.9867  141.0360  164.0179 C.2     1  UNL1        0.2418
     16 O         137.8005  141.7651  164.5760 O.2     1  UNL1       -0.2738
     17 N         140.1323  140.6705  164.9146 N.am    1  UNL1       -0.2832
     18 H         140.9108  140.1920  164.5483 H       1  UNL1        0.1549
     19 C         140.0916  141.0339  166.3693 C.ar    1  UNL1        0.0503
     20 C         139.5888  140.0423  167.3763 C.ar    1  UNL1        0.0147
     21 C         139.5481  140.4057  168.8310 C.ar    1  UNL1        0.0024
     22 C         140.0103  141.7607  169.2788 C.ar    1  UNL1        0.0141
     23 C         140.5131  142.7522  168.2719 C.ar    1  UNL1        0.0024
     24 C         140.5538  142.3888  166.8171 C.ar    1  UNL1        0.0147
     25 C         139.9696  142.1241  170.7335 C.2     1  UNL1        0.0729
     26 O         139.3318  143.4105  171.1677 O.co2   1  UNL1       -0.5446
     27 O         140.5668  141.2012  171.7542 O.co2   1  UNL1       -0.5446
     28 C         140.8307  137.8742  157.1963 C.3     1  UNL1        0.1086
     29 N         139.4855  138.1802  157.7853 N.pl3   1  UNL1       -0.3302
     30 H         138.8234  137.4608  157.9004 H       1  UNL1        0.1469
@<TRIPOS>UNITY_ATOM_ATTR
26 1
charge -1
@<TRIPOS>BOND
     1    28    29    1
     2    29     1    1
     3     1     2   ar
     4     2     3   ar
     5     3     4    1
     6     3     5   ar
     7     5     6   ar
     8     6     7    2
     9     7     8    1
    10     7     9    1
    11     9    15    1
    12    15    16    2
    13    15    17   am
    14    17    19    1
    15    19    20   ar
    16    20    21   ar
    17    21    22   ar
    18    22    25    1
    19    25    26   ar
    20    25    27   ar
    21    22    23   ar
    22    23    24   ar
    23     9    10    1
    24    10    11    2
    25    10    12    1
    26    12    13    2
    27    13     1   ar
    28    13     6   ar
    29    24    19   ar
    30    29    30    1
    31     8    14    1
    32    17    18    1
@<TRIPOS>MOLECULE
*****
 30 32 0 0 0
SMALL
GASTEIGER

@<TRIPOS>ATOM
      1 C         139.0425  143.3007  158.0478 C.ar    1  UNL1        0.0625
      2 C         139.8481  143.9724  156.9755 C.ar    1  UNL1        0.0452
      3 C         141.0898  144.7331  157.3358 C.ar    1  UNL1        0.1415
      4 F         141.8954  145.4048  156.2634 F       1  UNL1       -0.2041
      5 C         141.5258  144.8220  158.7682 C.ar    1  UNL1        0.0337
      6 C         140.7202  144.1503  159.8404 C.ar    1  UNL1        0.0492
      7 C         141.1562  144.2392  161.2730 C.2     1  UNL1        0.1296
      8 O         142.3979  144.9998  161.6332 O.2     1  UNL1       -0.5088
      9 C         140.3506  143.5675  162.3452 C.3     1  UNL1        0.2107
     10 C         139.1090  142.8068  161.9850 C.2     1  UNL1        0.2613
     11 O         138.3033  142.1351  163.0573 O.2     1  UNL1       -0.2720
     12 N         138.6729  142.7179  160.5525 N.am    1  UNL1       -0.1771
     13 C         139.4786  143.3896  159.4802 C.ar    1  UNL1        0.0891
     14 H         142.9011  145.4194  160.9633 H       1  UNL1        0.2917
     15 C         140.7866  143.6564  163.7777 C.2     1  UNL1        0.2418
     16 O         141.2664  144.9634  164.3359 O.2     1  UNL1       -0.2738
     17 N         140.7428  142.4383  164.6520 N.am    1  UNL1       -0.2832
     18 H         140.4279  141.5805  164.2856 H       1  UNL1        0.1549
     19 C         141.1788  142.5273  166.0844 C.ar    1  UNL1        0.0503
     20 C         140.1988  142.9399  167.1425 C.ar    1  UNL1        0.0147
     21 C         140.6348  143.0289  168.5749 C.ar    1  UNL1        0.0024
     22 C         142.0508  142.7052  168.9494 C.ar    1  UNL1        0.0141
     23 C         143.0308  142.2925  167.8915 C.ar    1  UNL1        0.0024
     24 C         142.5948  142.2036  166.4589 C.ar    1  UNL1        0.0147
     25 C         142.4868  142.7941  170.3819 C.2     1  UNL1        0.0729
     26 O         143.7632  143.4985  170.7350 O.co2   1  UNL1       -0.5446
     27 O         141.6464  142.1787  171.4613 O.co2   1  UNL1       -0.5446
     28 C         137.1791  142.7170  156.3341 C.3     1  UNL1        0.1086
     29 N         137.8009  142.5401  157.6876 N.pl3   1  UNL1       -0.3302
     30 H         137.3941  141.9247  158.3395 H       1  UNL1        0.1469
@<TRIPOS>UNITY_ATOM_ATTR
26 1
charge -1
@<TRIPOS>BOND
     1    28    29    1
     2    29     1    1
     3     1     2   ar
     4     2     3   ar
     5     3     4    1
     6     3     5   ar
     7     5     6   ar
     8     6     7    2
     9     7     8    1
    10     7     9    1
    11     9    15    1
    12    15    16    2
    13    15    17   am
    14    17    19    1
    15    19    20   ar
    16    20    21   ar
    17    21    22   ar
    18    22    25    1
    19    25    26   ar
    20    25    27   ar
    21    22    23   ar
    22    23    24   ar
    23     9    10    1
    24    10    11    2
    25    10    12    1
    26    12    13    2
    27    13     1   ar
    28    13     6   ar
    29    24    19   ar
    30    29    30    1
    31     8    14    1
    32    17    18    1
@<TRIPOS>MOLECULE
*****
 30 32 0 0 0
SMALL
GASTEIGER

@<TRIPOS>ATOM
      1 C         140.1164  138.5120  157.6301 C.ar    1  UNL1        0.0625
      2 C         141.2809  138.0482  156.8062 C.ar    1  UNL1        0.0452
      3 C         142.5480  137.6096  157.4786 C.ar    1  UNL1        0.1415
      4 F         143.7126  137.1458  156.6546 F       1  UNL1       -0.2041
      5 C         142.6507  137.6348  158.9748 C.ar    1  UNL1        0.0337
      6 C         141.4862  138.0986  159.7987 C.ar    1  UNL1        0.0492
      7 C         141.5888  138.1238  161.2950 C.2     1  UNL1        0.1296
      8 O         142.8559  137.6852  161.9674 O.2     1  UNL1       -0.5088
      9 C         140.4243  138.5876  162.1189 C.3     1  UNL1        0.2107
     10 C         139.1572  139.0262  161.4465 C.2     1  UNL1        0.2613
     11 O         137.9926  139.4900  162.2705 O.2     1  UNL1       -0.2720
     12 N         139.0545  139.0010  159.9503 N.am    1  UNL1       -0.1771
     13 C         140.2191  138.5372  159.1263 C.ar    1  UNL1        0.0891
     14 H         143.5833  137.3955  161.4527 H       1  UNL1        0.2917
     15 C         140.5268  138.6128  163.6152 C.2     1  UNL1        0.2418
     16 O         140.8568  137.3567  164.3656 O.2     1  UNL1       -0.2738
     17 N         140.2994  139.8942  164.3611 N.am    1  UNL1       -0.2832
     18 H         140.0829  140.7187  163.8685 H       1  UNL1        0.1549
     19 C         140.4020  139.9194  165.8573 C.ar    1  UNL1        0.0503
     20 C         139.1580  139.8917  166.6950 C.ar    1  UNL1        0.0147
     21 C         139.2605  139.9168  168.1912 C.ar    1  UNL1        0.0024
     22 C         140.6072  139.9698  168.8499 C.ar    1  UNL1        0.0141
     23 C         141.8512  139.9975  168.0123 C.ar    1  UNL1        0.0024
     24 C         141.7486  139.9723  166.5160 C.ar    1  UNL1        0.0147
     25 C         140.7097  139.9949  170.3461 C.2     1  UNL1        0.0729
     26 O         139.5781  139.4783  171.1843 O.co2   1  UNL1       -0.5446
     27 O         141.9440  140.5368  171.0043 O.co2   1  UNL1       -0.5446
     28 C         138.6692  140.3856  156.5600 C.3     1  UNL1        0.1086
     29 N         138.8493  138.9505  156.9577 N.pl3   1  UNL1       -0.3302
     30 H         138.1359  138.2965  156.7774 H       1  UNL1        0.1469
@<TRIPOS>UNITY_ATOM_ATTR
26 1
charge -1
@<TRIPOS>BOND
     1    28    29    1
     2    29     1    1
     3     1     2   ar
     4     2     3   ar
     5     3     4    1
     6     3     5   ar
     7     5     6   ar
     8     6     7    2
     9     7     8    1
    10     7     9    1
    11     9    15    1
    12    15    16    2
    13    15    17   am
    14    17    19    1
    15    19    20   ar
    16    20    21   ar
    17    21    22   ar
    18    22    25    1
    19    25    26   ar
    20    25    27   ar
    21    22    23   ar
    22    23    24   ar
    23     9    10    1
    24    10    11    2
    25    10    12    1
    26    12    13    2
    27    13     1   ar
    28    13     6   ar
    29    24    19   ar
    30    29    30    1
    31     8    14    1
    32    17    18    1
@<TRIPOS>MOLECULE
*****
 30 32 0 0 0
SMALL
GASTEIGER

@<TRIPOS>ATOM
      1 C         144.4273  141.7944  158.4616 C.ar    1  UNL1        0.0625
      2 C         144.0577  140.5384  157.7297 C.ar    1  UNL1        0.0452
      3 C         143.1928  139.5094  158.3954 C.ar    1  UNL1        0.1415
      4 F         142.8231  138.2533  157.6634 F       1  UNL1       -0.2041
      5 C         142.6975  139.7364  159.7929 C.ar    1  UNL1        0.0337
      6 C         143.0672  140.9924  160.5248 C.ar    1  UNL1        0.0492
      7 C         142.5719  141.2195  161.9224 C.2     1  UNL1        0.1296
      8 O         141.7070  140.1905  162.5881 O.2     1  UNL1       -0.5088
      9 C         142.9416  142.4755  162.6543 C.3     1  UNL1        0.2107
     10 C         143.8064  143.5046  161.9886 C.2     1  UNL1        0.2613
     11 O         144.1761  144.7607  162.7206 O.2     1  UNL1       -0.2720
     12 N         144.3017  143.2775  160.5911 N.am    1  UNL1       -0.1771
     13 C         143.9321  142.0215  159.8591 C.ar    1  UNL1        0.0891
     14 H         141.4761  139.4059  162.1309 H       1  UNL1        0.2917
     15 C         142.4463  142.7026  164.0519 C.2     1  UNL1        0.2418
     16 O         141.6848  143.9515  164.3841 O.2     1  UNL1       -0.2738
     17 N         142.7125  141.6808  165.1172 N.am    1  UNL1       -0.2832
     18 H         143.2123  140.8611  164.8992 H       1  UNL1        0.1549
     19 C         142.2173  141.9079  166.5147 C.ar    1  UNL1        0.0503
     20 C         143.1858  142.2537  167.6068 C.ar    1  UNL1        0.0147
     21 C         142.6906  142.4808  169.0043 C.ar    1  UNL1        0.0024
     22 C         141.2268  142.3621  169.3099 C.ar    1  UNL1        0.0141
     23 C         140.2583  142.0164  168.2179 C.ar    1  UNL1        0.0024
     24 C         140.7535  141.7893  166.8203 C.ar    1  UNL1        0.0147
     25 C         140.7316  142.5892  170.7074 C.2     1  UNL1        0.0729
     26 O         141.5457  142.1210  171.8770 O.co2   1  UNL1       -0.5446
     27 O         139.4221  143.2846  170.9354 O.co2   1  UNL1       -0.5446
     28 C         146.4449  142.3930  156.9382 C.3     1  UNL1        0.1086
     29 N         145.2922  142.8235  157.7959 N.pl3   1  UNL1       -0.3302
     30 H         145.1032  143.7814  157.9221 H       1  UNL1        0.1469
@<TRIPOS>UNITY_ATOM_ATTR
26 1
charge -1
@<TRIPOS>BOND
     1    28    29    1
     2    29     1    1
     3     1     2   ar
     4     2     3   ar
     5     3     4    1
     6     3     5   ar
     7     5     6   ar
     8     6     7    2
     9     7     8    1
    10     7     9    1
    11     9    15    1
    12    15    16    2
    13    15    17   am
    14    17    19    1
    15    19    20   ar
    16    20    21   ar
    17    21    22   ar
    18    22    25    1
    19    25    26   ar
    20    25    27   ar
    21    22    23   ar
    22    23    24   ar
    23     9    10    1
    24    10    11    2
    25    10    12    1
    26    12    13    2
    27    13     1   ar
    28    13     6   ar
    29    24    19   ar
    30    29    30    1
    31     8    14    1
    32    17    18    1
@<TRIPOS>MOLECULE
*****
 30 32 0 0 0
SMALL
GASTEIGER

@<TRIPOS>ATOM
      1 C         139.3696  139.4123  158.3761 C.ar    1  UNL1        0.0625
      2 C         140.5183  138.6569  157.7762 C.ar    1  UNL1        0.0452
      3 C         141.6182  138.1414  158.6562 C.ar    1  UNL1        0.1415
      4 F         142.7669  137.3860  158.0563 F       1  UNL1       -0.2041
      5 C         141.5694  138.3812  160.1361 C.ar    1  UNL1        0.0337
      6 C         140.4207  139.1365  160.7359 C.ar    1  UNL1        0.0492
      7 C         140.3719  139.3764  162.2159 C.2     1  UNL1        0.1296
      8 O         141.4718  138.8609  163.0959 O.2     1  UNL1       -0.5088
      9 C         139.2232  140.1318  162.8158 C.3     1  UNL1        0.2107
     10 C         138.1233  140.6473  161.9358 C.2     1  UNL1        0.2613
     11 O         136.9746  141.4027  162.5357 O.2     1  UNL1       -0.2720
     12 N         138.1721  140.4075  160.4559 N.am    1  UNL1       -0.1771
     13 C         139.3208  139.6521  159.8559 C.ar    1  UNL1        0.0891
     14 H         142.1894  138.3890  162.7212 H       1  UNL1        0.2917
     15 C         139.1744  140.3716  164.2957 C.2     1  UNL1        0.2418
     16 O         137.9853  139.9189  165.0900 O.2     1  UNL1       -0.2738
     17 N         140.3147  141.0642  164.9812 N.am    1  UNL1       -0.2832
     18 H         141.0952  141.3614  164.4599 H       1  UNL1        0.1549
     19 C         140.2658  141.3041  166.4611 C.ar    1  UNL1        0.0503
     20 C         140.3994  142.6976  166.9999 C.ar    1  UNL1        0.0147
     21 C         140.3505  142.9374  168.4798 C.ar    1  UNL1        0.0024
     22 C         140.1681  141.7838  169.4209 C.ar    1  UNL1        0.0141
     23 C         140.0345  140.3903  168.8822 C.ar    1  UNL1        0.0024
     24 C         140.0834  140.1504  167.4023 C.ar    1  UNL1        0.0147
     25 C         140.1192  142.0236  170.9008 C.2     1  UNL1        0.0729
     26 O         140.7353  141.0314  171.8421 O.co2   1  UNL1       -0.5446
     27 O         139.4543  143.2557  171.4394 O.co2   1  UNL1       -0.5446
     28 C         138.4069  141.2642  156.8290 C.3     1  UNL1        0.1086
     29 N         138.2697  139.9278  157.4961 N.pl3   1  UNL1       -0.3302
     30 H         137.4576  139.3890  157.3563 H       1  UNL1        0.1469
@<TRIPOS>UNITY_ATOM_ATTR
26 1
charge -1
@<TRIPOS>BOND
     1    28    29    1
     2    29     1    1
     3     1     2   ar
     4     2     3   ar
     5     3     4    1
     6     3     5   ar
     7     5     6   ar
     8     6     7    2
     9     7     8    1
    10     7     9    1
    11     9    15    1
    12    15    16    2
    13    15    17   am
    14    17    19    1
    15    19    20   ar
    16    20    21   ar
    17    21    22   ar
    18    22    25    1
    19    25    26   ar
    20    25    27   ar
    21    22    23   ar
    22    23    24   ar
    23     9    10    1
    24    10    11    2
    25    10    12    1
    26    12    13    2
    27    13     1   ar
    28    13     6   ar
    29    24    19   ar
    30    29    30    1
    31     8    14    1
    32    17    18    1
@<TRIPOS>MOLECULE
*****
 30 32 0 0 0
SMALL
GASTEIGER

@<TRIPOS>ATOM
      1 C         141.0236  138.5995  158.5014 C.ar    1  UNL1        0.0625
      2 C         142.1561  139.0299  157.6171 C.ar    1  UNL1        0.0452
      3 C         143.3036  139.8060  158.1922 C.ar    1  UNL1        0.1415
      4 F         144.4361  140.2365  157.3077 F       1  UNL1       -0.2041
      5 C         143.3187  140.1517  159.6517 C.ar    1  UNL1        0.0337
      6 C         142.1862  139.7213  160.5361 C.ar    1  UNL1        0.0492
      7 C         142.2012  140.0670  161.9957 C.2     1  UNL1        0.1296
      8 O         143.3487  140.8431  162.5708 O.2     1  UNL1       -0.5088
      9 C         141.0687  139.6365  162.8801 C.3     1  UNL1        0.2107
     10 C         139.9212  138.8604  162.3049 C.2     1  UNL1        0.2613
     11 O         138.7887  138.4300  163.1894 O.2     1  UNL1       -0.2720
     12 N         139.9061  138.5147  160.8454 N.am    1  UNL1       -0.1771
     13 C         141.0387  138.9452  159.9610 C.ar    1  UNL1        0.0891
     14 H         144.0562  141.1120  162.0184 H       1  UNL1        0.2917
     15 C         141.0837  139.9822  164.3397 C.2     1  UNL1        0.2418
     16 O         142.2294  139.5432  165.2026 O.2     1  UNL1       -0.2738
     17 N         139.9531  140.7669  164.9362 N.am    1  UNL1       -0.2832
     18 H         139.2012  141.0551  164.3698 H       1  UNL1        0.1549
     19 C         139.9682  141.1126  166.3957 C.ar    1  UNL1        0.0503
     20 C         139.5480  140.0928  167.4124 C.ar    1  UNL1        0.0147
     21 C         139.5631  140.4384  168.8719 C.ar    1  UNL1        0.0024
     22 C         139.9983  141.8039  169.3149 C.ar    1  UNL1        0.0141
     23 C         140.4184  142.8236  168.2983 C.ar    1  UNL1        0.0024
     24 C         140.4034  142.4780  166.8387 C.ar    1  UNL1        0.0147
     25 C         140.0133  142.1495  170.7744 C.2     1  UNL1        0.0729
     26 O         140.7772  141.2929  171.7402 O.co2   1  UNL1       -0.5446
     27 O         139.2645  143.3518  171.2682 O.co2   1  UNL1       -0.5446
     28 C         139.8122  137.5618  156.4507 C.3     1  UNL1        0.1086
     29 N         139.8761  137.8233  157.9263 N.pl3   1  UNL1       -0.3302
     30 H         139.1648  137.4856  158.5173 H       1  UNL1        0.1469
@<TRIPOS>UNITY_ATOM_ATTR
26 1
charge -1
@<TRIPOS>BOND
     1    28    29    1
     2    29     1    1
     3     1     2   ar
     4     2     3   ar
     5     3     4    1
     6     3     5   ar
     7     5     6   ar
     8     6     7    2
     9     7     8    1
    10     7     9    1
    11     9    15    1
    12    15    16    2
    13    15    17   am
    14    17    19    1
    15    19    20   ar
    16    20    21   ar
    17    21    22   ar
    18    22    25    1
    19    25    26   ar
    20    25    27   ar
    21    22    23   ar
    22    23    24   ar
    23     9    10    1
    24    10    11    2
    25    10    12    1
    26    12    13    2
    27    13     1   ar
    28    13     6   ar
    29    24    19   ar
    30    29    30    1
    31     8    14    1
    32    17    18    1
