@<TRIPOS>MOLECULE
*****
 35 38 0 0 0
SMALL
GASTEIGER

@<TRIPOS>ATOM
      1 C         139.3032  139.0060  165.1816 C.ar    1  UNL1        0.0038
      2 C         138.2190  138.1211  165.7212 C.ar    1  UNL1        0.0017
      3 C         137.7552  138.2824  167.1386 C.ar    1  UNL1        0.0191
      4 C         138.3757  139.3286  168.0163 C.ar    1  UNL1        0.0825
      5 N         137.9119  139.4899  169.4337 N.ar    1  UNL1       -0.2436
      6 C         138.5324  140.5362  170.3114 C.ar    1  UNL1        0.1045
      7 C         139.6167  141.4211  169.7717 C.ar    1  UNL1        0.0853
      8 C         140.0805  141.2598  168.3543 C.ar    1  UNL1        0.0522
      9 C         139.4600  140.2135  167.4766 C.ar    1  UNL1        0.0310
     10 C         139.9237  140.0522  166.0593 C.ar    1  UNL1        0.0028
     11 C         140.6947  138.5221  160.9295 C.ar    1  UNL1        0.0911
     12 C         139.7820  139.6548  161.2957 C.ar    1  UNL1        0.0174
     13 C         139.3182  139.8161  162.7131 C.ar    1  UNL1        0.0051
     14 C         139.7670  138.8447  163.7642 C.ar    1  UNL1        0.0460
     15 C         140.6797  137.7120  163.3980 C.ar    1  UNL1        0.2219
     16 F         141.1285  136.7406  164.4493 F       1  UNL1       -0.1832
     17 N         141.1435  137.5507  161.9807 N.ar    1  UNL1       -0.2199
     18 C         141.1585  138.3608  159.5122 C.3     1  UNL1        0.1876
     19 C         143.5775  139.2888  159.7056 C.3     1  UNL1        0.1747
     20 O         142.6232  138.2423  159.2113 O.3     1  UNL1       -0.3447
     21 C         140.2372  142.4673  170.6494 C.2     1  UNL1        0.2455
     22 N         139.9603  143.9196  170.3957 N.am    1  UNL1       -0.3252
     23 O         141.1346  142.0614  171.7806 O.2     1  UNL1       -0.2703
     24 H         139.3713  144.1861  169.6532 H       1  UNL1        0.1453
     25 H         140.3676  144.6063  170.9718 H       1  UNL1        0.1453
     26 N         141.1647  142.1447  167.8147 N.pl3   1  UNL1       -0.3292
     27 H         140.9402  143.0299  167.4470 H       1  UNL1        0.1471
     28 C         142.5912  141.6809  167.8354 C.3     1  UNL1        0.1117
     29 C         143.5611  142.2817  168.8092 C.3     1  UNL1        0.0278
     30 C         143.0476  140.6164  166.8823 C.ar    1  UNL1        0.0978
     31 C         143.1316  139.1477  167.1753 C.ar    1  UNL1        0.0383
     32 C         143.6360  138.4573  165.9430 C.ar    1  UNL1        0.0964
     33 N         143.8638  139.4993  164.8882 N.ar    1  UNL1       -0.2476
     34 C         144.3669  139.2505  163.4972 C.3     1  UNL1        0.1537
     35 N         143.5001  140.8337  165.4687 N.ar    1  UNL1       -0.1719
@<TRIPOS>BOND
     1    19    20    1
     2    20    18    1
     3    18    11    1
     4    11    12   ar
     5    12    13   ar
     6    13    14   ar
     7    14     1    1
     8     1     2   ar
     9     2     3   ar
    10     3     4   ar
    11     4     5   ar
    12     5     6   ar
    13     6     7   ar
    14     7    21    1
    15    21    22   am
    16    21    23    2
    17     7     8   ar
    18     8    26    1
    19    26    28    1
    20    28    29    1
    21    28    30    1
    22    30    31   ar
    23    31    32   ar
    24    32    33   ar
    25    33    34    1
    26    33    35   ar
    27     8     9   ar
    28     9    10   ar
    29    14    15   ar
    30    15    16    1
    31    15    17   ar
    32    17    11   ar
    33    10     1   ar
    34     9     4   ar
    35    35    30   ar
    36    22    24    1
    37    22    25    1
    38    26    27    1
@<TRIPOS>MOLECULE
*****
 35 38 0 0 0
SMALL
GASTEIGER

@<TRIPOS>ATOM
      1 C         139.4801  139.0789  164.8302 C.ar    1  UNL1        0.0038
      2 C         138.4930  138.1179  165.4236 C.ar    1  UNL1        0.0017
      3 C         138.0689  138.2666  166.8547 C.ar    1  UNL1        0.0191
      4 C         138.6318  139.3763  167.6924 C.ar    1  UNL1        0.0825
      5 N         138.2077  139.5249  169.1235 N.ar    1  UNL1       -0.2436
      6 C         138.7707  140.6346  169.9612 C.ar    1  UNL1        0.1045
      7 C         139.7578  141.5956  169.3677 C.ar    1  UNL1        0.0853
      8 C         140.1819  141.4469  167.9367 C.ar    1  UNL1        0.0522
      9 C         139.6189  140.3372  167.0990 C.ar    1  UNL1        0.0310
     10 C         140.0430  140.1885  165.6679 C.ar    1  UNL1        0.0028
     11 C         140.7525  138.6328  160.5369 C.ar    1  UNL1        0.0911
     12 C         139.8999  139.7959  160.9495 C.ar    1  UNL1        0.0174
     13 C         139.4757  139.9446  162.3806 C.ar    1  UNL1        0.0051
     14 C         139.9042  138.9302  163.3991 C.ar    1  UNL1        0.0460
     15 C         140.7569  137.7671  162.9866 C.ar    1  UNL1        0.2219
     16 F         141.1854  136.7527  164.0051 F       1  UNL1       -0.1832
     17 N         141.1811  137.6184  161.5555 N.ar    1  UNL1       -0.2199
     18 C         141.1767  138.4841  159.1059 C.3     1  UNL1        0.1876
     19 C         143.4718  139.5722  159.6525 C.3     1  UNL1        0.1747
     20 O         142.4826  139.0619  158.6469 O.3     1  UNL1       -0.3447
     21 C         140.3208  142.7052  170.2054 C.2     1  UNL1        0.2455
     22 N         141.0725  142.3875  171.4640 N.am    1  UNL1       -0.3252
     23 O         140.1321  144.1325  169.7845 O.2     1  UNL1       -0.2703
     24 H         141.1963  141.4508  171.7403 H       1  UNL1        0.1453
     25 H         141.4420  143.1158  172.0138 H       1  UNL1        0.1453
     26 N         141.1690  142.4078  167.3433 N.pl3   1  UNL1       -0.3292
     27 H         140.8545  143.2447  166.9311 H       1  UNL1        0.1471
     28 C         142.6354  142.0937  167.3780 C.3     1  UNL1        0.1117
     29 C         143.4122  142.2789  168.6477 C.3     1  UNL1        0.0278
     30 C         143.3249  141.5945  166.1429 C.ar    1  UNL1        0.0978
     31 C         143.3367  140.1773  165.6517 C.ar    1  UNL1        0.0383
     32 C         144.1427  140.1317  164.3874 C.ar    1  UNL1        0.0964
     33 N         144.6290  141.5207  164.0973 N.ar    1  UNL1       -0.2476
     34 C         145.4726  141.9333  162.9277 C.3     1  UNL1        0.1537
     35 N         144.1235  142.4248  165.1823 N.ar    1  UNL1       -0.1719
@<TRIPOS>BOND
     1    19    20    1
     2    20    18    1
     3    18    11    1
     4    11    12   ar
     5    12    13   ar
     6    13    14   ar
     7    14     1    1
     8     1     2   ar
     9     2     3   ar
    10     3     4   ar
    11     4     5   ar
    12     5     6   ar
    13     6     7   ar
    14     7    21    1
    15    21    22   am
    16    21    23    2
    17     7     8   ar
    18     8    26    1
    19    26    28    1
    20    28    29    1
    21    28    30    1
    22    30    31   ar
    23    31    32   ar
    24    32    33   ar
    25    33    34    1
    26    33    35   ar
    27     8     9   ar
    28     9    10   ar
    29    14    15   ar
    30    15    16    1
    31    15    17   ar
    32    17    11   ar
    33    10     1   ar
    34     9     4   ar
    35    35    30   ar
    36    22    24    1
    37    22    25    1
    38    26    27    1
@<TRIPOS>MOLECULE
*****
 35 38 0 0 0
SMALL
GASTEIGER

@<TRIPOS>ATOM
      1 C         142.7978  138.9621  164.5249 C.ar    1  UNL1        0.0038
      2 C         144.0014  138.4349  165.2484 C.ar    1  UNL1        0.0017
      3 C         144.0384  138.4434  166.7479 C.ar    1  UNL1        0.0191
      4 C         142.8719  138.9790  167.5239 C.ar    1  UNL1        0.0825
      5 N         142.9090  138.9875  169.0235 N.ar    1  UNL1       -0.2436
      6 C         141.7425  139.5231  169.7995 C.ar    1  UNL1        0.1045
      7 C         140.5388  140.0503  169.0760 C.ar    1  UNL1        0.0853
      8 C         140.5018  140.0419  167.5765 C.ar    1  UNL1        0.0522
      9 C         141.6683  139.5062  166.8005 C.ar    1  UNL1        0.0310
     10 C         141.6313  139.4977  165.3010 C.ar    1  UNL1        0.0028
     11 C         142.6865  138.9367  160.0263 C.ar    1  UNL1        0.0911
     12 C         143.5119  139.9587  160.7503 C.ar    1  UNL1        0.0174
     13 C         143.5490  139.9671  162.2499 C.ar    1  UNL1        0.0051
     14 C         142.7607  138.9536  163.0254 C.ar    1  UNL1        0.0460
     15 C         141.9353  137.9316  162.3013 C.ar    1  UNL1        0.2219
     16 F         141.1470  136.9181  163.0769 F       1  UNL1       -0.1832
     17 N         141.8982  137.9231  160.8018 N.ar    1  UNL1       -0.2199
     18 C         142.6494  138.9282  158.5268 C.3     1  UNL1        0.1876
     19 C         142.7846  136.6846  157.2237 C.3     1  UNL1        0.1747
     20 O         141.9708  137.8053  157.7998 O.3     1  UNL1       -0.3447
     21 C         139.3723  140.5860  169.8521 C.2     1  UNL1        0.2455
     22 N         139.4826  141.9057  170.5565 N.am    1  UNL1       -0.3252
     23 O         138.0955  139.8020  169.9237 O.2     1  UNL1       -0.2703
     24 H         140.3206  142.4203  170.5095 H       1  UNL1        0.1453
     25 H         138.7169  142.2573  171.0659 H       1  UNL1        0.1453
     26 N         139.2982  140.5690  166.8531 N.pl3   1  UNL1       -0.3292
     27 H         139.0799  141.5281  166.8945 H       1  UNL1        0.1471
     28 C         138.4271  139.6349  166.0665 C.3     1  UNL1        0.1117
     29 C         137.7449  138.4888  166.7529 C.3     1  UNL1        0.0278
     30 C         138.2382  139.8469  164.5937 C.ar    1  UNL1        0.0978
     31 C         137.7191  141.0942  163.9419 C.ar    1  UNL1        0.0383
     32 C         137.6953  140.8670  162.4594 C.ar    1  UNL1        0.0964
     33 N         138.1996  139.4793  162.1949 N.ar    1  UNL1       -0.2476
     34 C         138.3432  138.8352  160.8479 C.3     1  UNL1        0.1537
     35 N         138.5351  138.8488  163.5140 N.ar    1  UNL1       -0.1719
@<TRIPOS>BOND
     1    19    20    1
     2    20    18    1
     3    18    11    1
     4    11    12   ar
     5    12    13   ar
     6    13    14   ar
     7    14     1    1
     8     1     2   ar
     9     2     3   ar
    10     3     4   ar
    11     4     5   ar
    12     5     6   ar
    13     6     7   ar
    14     7    21    1
    15    21    22   am
    16    21    23    2
    17     7     8   ar
    18     8    26    1
    19    26    28    1
    20    28    29    1
    21    28    30    1
    22    30    31   ar
    23    31    32   ar
    24    32    33   ar
    25    33    34    1
    26    33    35   ar
    27     8     9   ar
    28     9    10   ar
    29    14    15   ar
    30    15    16    1
    31    15    17   ar
    32    17    11   ar
    33    10     1   ar
    34     9     4   ar
    35    35    30   ar
    36    22    24    1
    37    22    25    1
    38    26    27    1
@<TRIPOS>MOLECULE
*****
 35 38 0 0 0
SMALL
GASTEIGER

@<TRIPOS>ATOM
      1 C         138.6870  140.0217  165.4669 C.ar    1  UNL1        0.0038
      2 C         137.9082  139.1617  166.4176 C.ar    1  UNL1        0.0017
      3 C         138.2621  139.1444  167.8751 C.ar    1  UNL1        0.0191
      4 C         139.3948  139.9871  168.3819 C.ar    1  UNL1        0.0825
      5 N         139.7487  139.9697  169.8395 N.ar    1  UNL1       -0.2436
      6 C         140.8814  140.8124  170.3464 C.ar    1  UNL1        0.1045
      7 C         141.6602  141.6724  169.3956 C.ar    1  UNL1        0.0853
      8 C         141.3063  141.6897  167.9381 C.ar    1  UNL1        0.0522
      9 C         140.1736  140.8470  167.4312 C.ar    1  UNL1        0.0310
     10 C         139.8197  140.8643  165.9737 C.ar    1  UNL1        0.0028
     11 C         137.6254  140.0737  161.0941 C.ar    1  UNL1        0.0911
     12 C         138.2549  138.8537  161.6986 C.ar    1  UNL1        0.0174
     13 C         138.6088  138.8364  163.1562 C.ar    1  UNL1        0.0051
     14 C         138.3332  140.0390  164.0093 C.ar    1  UNL1        0.0460
     15 C         137.7037  141.2590  163.4048 C.ar    1  UNL1        0.2219
     16 F         137.4280  142.4616  164.2579 F       1  UNL1       -0.1832
     17 N         137.3498  141.2763  161.9473 N.ar    1  UNL1       -0.2199
     18 C         137.2716  140.0911  159.6366 C.3     1  UNL1        0.1876
     19 C         139.1242  139.9635  157.8195 C.3     1  UNL1        0.1747
     20 O         138.1759  140.7732  158.6534 O.3     1  UNL1       -0.3447
     21 C         142.7929  142.5151  169.9024 C.2     1  UNL1        0.2455
     22 N         142.7031  143.1571  171.2552 N.am    1  UNL1       -0.3252
     23 O         144.0152  142.7158  169.0566 O.2     1  UNL1       -0.2703
     24 H         141.9008  143.0254  171.8103 H       1  UNL1        0.1453
     25 H         143.4465  143.7102  171.5879 H       1  UNL1        0.1453
     26 N         142.0851  142.5497  166.9874 N.pl3   1  UNL1       -0.3292
     27 H         142.0595  143.5298  167.0764 H       1  UNL1        0.1471
     28 C         142.9029  141.9164  165.9010 C.3     1  UNL1        0.1117
     29 C         143.4388  140.5267  166.0791 C.3     1  UNL1        0.0278
     30 C         143.1848  142.6726  164.6367 C.ar    1  UNL1        0.0978
     31 C         143.8486  144.0144  164.5413 C.ar    1  UNL1        0.0383
     32 C         143.9265  144.3910  163.0915 C.ar    1  UNL1        0.0964
     33 N         143.3107  143.2820  162.2908 N.ar    1  UNL1       -0.2476
     34 C         143.1769  143.2420  160.7973 C.3     1  UNL1        0.1537
     35 N         142.8524  142.2200  163.2458 N.ar    1  UNL1       -0.1719
@<TRIPOS>BOND
     1    19    20    1
     2    20    18    1
     3    18    11    1
     4    11    12   ar
     5    12    13   ar
     6    13    14   ar
     7    14     1    1
     8     1     2   ar
     9     2     3   ar
    10     3     4   ar
    11     4     5   ar
    12     5     6   ar
    13     6     7   ar
    14     7    21    1
    15    21    22   am
    16    21    23    2
    17     7     8   ar
    18     8    26    1
    19    26    28    1
    20    28    29    1
    21    28    30    1
    22    30    31   ar
    23    31    32   ar
    24    32    33   ar
    25    33    34    1
    26    33    35   ar
    27     8     9   ar
    28     9    10   ar
    29    14    15   ar
    30    15    16    1
    31    15    17   ar
    32    17    11   ar
    33    10     1   ar
    34     9     4   ar
    35    35    30   ar
    36    22    24    1
    37    22    25    1
    38    26    27    1
@<TRIPOS>MOLECULE
*****
 35 38 0 0 0
SMALL
GASTEIGER

@<TRIPOS>ATOM
      1 C         139.1054  139.3406  164.7076 C.ar    1  UNL1        0.0038
      2 C         138.3525  138.3420  165.5357 C.ar    1  UNL1        0.0017
      3 C         138.2617  138.5169  167.0226 C.ar    1  UNL1        0.0191
      4 C         138.9240  139.6905  167.6815 C.ar    1  UNL1        0.0825
      5 N         138.8332  139.8654  169.1686 N.ar    1  UNL1       -0.2436
      6 C         139.4955  141.0390  169.8274 C.ar    1  UNL1        0.1045
      7 C         140.2485  142.0377  168.9993 C.ar    1  UNL1        0.0853
      8 C         140.3392  141.8627  167.5123 C.ar    1  UNL1        0.0522
      9 C         139.6769  140.6891  166.8534 C.ar    1  UNL1        0.0310
     10 C         139.7677  140.5142  165.3665 C.ar    1  UNL1        0.0028
     11 C         139.3777  138.8157  160.2465 C.ar    1  UNL1        0.0911
     12 C         138.6117  139.9707  160.8204 C.ar    1  UNL1        0.0174
     13 C         138.5210  140.1456  162.3075 C.ar    1  UNL1        0.0051
     14 C         139.1962  139.1656  163.2205 C.ar    1  UNL1        0.0460
     15 C         139.9621  138.0107  162.6466 C.ar    1  UNL1        0.2219
     16 F         140.6374  137.0307  163.5597 F       1  UNL1       -0.1832
     17 N         140.0529  137.8357  161.1597 N.ar    1  UNL1       -0.2199
     18 C         139.4685  138.6408  158.7596 C.3     1  UNL1        0.1876
     19 C         139.1938  140.0953  156.6244 C.3     1  UNL1        0.1747
     20 O         138.6054  139.4674  157.8531 O.3     1  UNL1       -0.3447
     21 C         140.9107  143.2113  169.6582 C.2     1  UNL1        0.2455
     22 N         140.0773  144.3256  170.2184 N.am    1  UNL1       -0.3252
     23 O         142.4062  143.2706  169.7568 O.2     1  UNL1       -0.2703
     24 H         139.0957  144.2867  170.1536 H       1  UNL1        0.1453
     25 H         140.5119  145.0959  170.6509 H       1  UNL1        0.1453
     26 N         141.0921  142.8613  166.6842 N.pl3   1  UNL1       -0.3292
     27 H         140.7384  143.7730  166.5703 H       1  UNL1        0.1471
     28 C         142.3841  142.4710  166.0297 C.3     1  UNL1        0.1117
     29 C         143.2920  141.4790  166.6944 C.3     1  UNL1        0.0278
     30 C         142.7683  143.0725  164.7104 C.ar    1  UNL1        0.0978
     31 C         144.0605  143.7688  164.4018 C.ar    1  UNL1        0.0383
     32 C         144.0186  144.2101  162.9688 C.ar    1  UNL1        0.0964
     33 N         142.7003  143.7865  162.3917 N.ar    1  UNL1       -0.2476
     34 C         142.2363  144.0242  160.9853 C.3     1  UNL1        0.1537
     35 N         141.9276  143.0835  163.4681 N.ar    1  UNL1       -0.1719
@<TRIPOS>BOND
     1    19    20    1
     2    20    18    1
     3    18    11    1
     4    11    12   ar
     5    12    13   ar
     6    13    14   ar
     7    14     1    1
     8     1     2   ar
     9     2     3   ar
    10     3     4   ar
    11     4     5   ar
    12     5     6   ar
    13     6     7   ar
    14     7    21    1
    15    21    22   am
    16    21    23    2
    17     7     8   ar
    18     8    26    1
    19    26    28    1
    20    28    29    1
    21    28    30    1
    22    30    31   ar
    23    31    32   ar
    24    32    33   ar
    25    33    34    1
    26    33    35   ar
    27     8     9   ar
    28     9    10   ar
    29    14    15   ar
    30    15    16    1
    31    15    17   ar
    32    17    11   ar
    33    10     1   ar
    34     9     4   ar
    35    35    30   ar
    36    22    24    1
    37    22    25    1
    38    26    27    1
@<TRIPOS>MOLECULE
*****
 35 38 0 0 0
SMALL
GASTEIGER

@<TRIPOS>ATOM
      1 C         139.6925  139.3168  165.3807 C.ar    1  UNL1        0.0038
      2 C         139.3731  137.9024  164.9968 C.ar    1  UNL1        0.0017
      3 C         139.0957  137.5588  163.5633 C.ar    1  UNL1        0.0191
      4 C         139.1377  138.6296  162.5137 C.ar    1  UNL1        0.0825
      5 N         138.8602  138.2859  161.0801 N.ar    1  UNL1       -0.2436
      6 C         138.9022  139.3567  160.0305 C.ar    1  UNL1        0.1045
      7 C         139.2216  140.7711  160.4145 C.ar    1  UNL1        0.0853
      8 C         139.4990  141.1147  161.8480 C.ar    1  UNL1        0.0522
      9 C         139.4571  140.0440  162.8976 C.ar    1  UNL1        0.0310
     10 C         139.7345  140.3876  164.3311 C.ar    1  UNL1        0.0028
     11 C         140.5247  140.3478  169.6812 C.ar    1  UNL1        0.0911
     12 C         141.6082  140.4875  168.6533 C.ar    1  UNL1        0.0174
     13 C         141.3307  140.1438  167.2198 C.ar    1  UNL1        0.0051
     14 C         139.9699  139.6605  166.8142 C.ar    1  UNL1        0.0460
     15 C         138.8865  139.5208  167.8421 C.ar    1  UNL1        0.2219
     16 F         137.5256  139.0374  167.4365 F       1  UNL1       -0.1832
     17 N         139.1638  139.8644  169.2756 N.ar    1  UNL1       -0.2199
     18 C         140.8021  140.6914  171.1147 C.3     1  UNL1        0.1876
     19 C         139.8372  143.0729  170.7305 C.3     1  UNL1        0.1747
     20 O         140.4502  142.0510  171.6416 O.3     1  UNL1       -0.3447
     21 C         139.2636  141.8419  159.3649 C.2     1  UNL1        0.2455
     22 N         140.0757  141.6403  158.1199 N.am    1  UNL1       -0.3252
     23 O         138.4936  143.1142  159.5602 O.2     1  UNL1       -0.2703
     24 H         140.5812  140.8053  157.9917 H       1  UNL1        0.1453
     25 H         140.1033  142.3431  157.4310 H       1  UNL1        0.1453
     26 N         139.8184  142.5291  162.2319 N.pl3   1  UNL1       -0.3292
     27 H         139.0981  143.1363  162.5176 H       1  UNL1        0.1471
     28 C         141.2355  143.0185  162.1804 C.3     1  UNL1        0.1117
     29 C         141.6268  144.0805  161.1960 C.3     1  UNL1        0.0278
     30 C         142.2611  142.4459  163.1132 C.ar    1  UNL1        0.0978
     31 C         142.6008  142.9680  164.4778 C.ar    1  UNL1        0.0383
     32 C         143.6767  142.0955  165.0533 C.ar    1  UNL1        0.0964
     33 N         144.0020  141.0342  164.0443 N.ar    1  UNL1       -0.2476
     34 C         145.0228  139.9471  164.2060 C.3     1  UNL1        0.1537
     35 N         143.1270  141.2508  162.8453 N.ar    1  UNL1       -0.1719
@<TRIPOS>BOND
     1    19    20    1
     2    20    18    1
     3    18    11    1
     4    11    12   ar
     5    12    13   ar
     6    13    14   ar
     7    14     1    1
     8     1     2   ar
     9     2     3   ar
    10     3     4   ar
    11     4     5   ar
    12     5     6   ar
    13     6     7   ar
    14     7    21    1
    15    21    22   am
    16    21    23    2
    17     7     8   ar
    18     8    26    1
    19    26    28    1
    20    28    29    1
    21    28    30    1
    22    30    31   ar
    23    31    32   ar
    24    32    33   ar
    25    33    34    1
    26    33    35   ar
    27     8     9   ar
    28     9    10   ar
    29    14    15   ar
    30    15    16    1
    31    15    17   ar
    32    17    11   ar
    33    10     1   ar
    34     9     4   ar
    35    35    30   ar
    36    22    24    1
    37    22    25    1
    38    26    27    1
@<TRIPOS>MOLECULE
*****
 35 38 0 0 0
SMALL
GASTEIGER

@<TRIPOS>ATOM
      1 C         140.5559  139.0618  165.4608 C.ar    1  UNL1        0.0038
      2 C         141.5171  138.0052  165.0028 C.ar    1  UNL1        0.0017
      3 C         141.5279  137.5730  163.5665 C.ar    1  UNL1        0.0191
      4 C         140.5776  138.1973  162.5882 C.ar    1  UNL1        0.0825
      5 N         140.5884  137.7650  161.1518 N.ar    1  UNL1       -0.2436
      6 C         139.6381  138.3893  160.1735 C.ar    1  UNL1        0.1045
      7 C         138.6769  139.4460  160.6315 C.ar    1  UNL1        0.0853
      8 C         138.6661  139.8782  162.0678 C.ar    1  UNL1        0.0522
      9 C         139.6164  139.2539  163.0462 C.ar    1  UNL1        0.0310
     10 C         139.6056  139.6861  164.4825 C.ar    1  UNL1        0.0028
     11 C         140.5232  140.3587  169.7698 C.ar    1  UNL1        0.0911
     12 C         141.8161  140.3112  169.0107 C.ar    1  UNL1        0.0174
     13 C         141.8270  139.8789  167.5743 C.ar    1  UNL1        0.0051
     14 C         140.5450  139.4941  166.8971 C.ar    1  UNL1        0.0460
     15 C         139.2522  139.5416  167.6563 C.ar    1  UNL1        0.2219
     16 F         137.9702  139.1568  166.9791 F       1  UNL1       -0.1832
     17 N         139.2413  139.9738  169.0926 N.ar    1  UNL1       -0.2199
     18 C         140.5123  140.7909  171.2061 C.3     1  UNL1        0.1876
     19 C         139.9626  143.2295  170.4982 C.3     1  UNL1        0.1747
     20 O         140.3772  142.2445  171.5508 O.3     1  UNL1       -0.3447
     21 C         137.7266  140.0703  159.6532 C.2     1  UNL1        0.2455
     22 N         138.2505  140.9425  158.5510 N.am    1  UNL1       -0.3252
     23 O         136.2525  139.8224  159.7771 O.2     1  UNL1       -0.2703
     24 H         139.2181  141.1052  158.4697 H       1  UNL1        0.1453
     25 H         137.6268  141.3523  157.9089 H       1  UNL1        0.1453
     26 N         137.7049  140.9348  162.5258 N.pl3   1  UNL1       -0.3292
     27 H         136.7511  140.7177  162.6372 H       1  UNL1        0.1471
     28 C         138.1970  142.3222  162.8142 C.3     1  UNL1        0.1117
     29 C         137.7670  143.0250  164.0676 C.3     1  UNL1        0.0278
     30 C         139.1189  143.0067  161.8491 C.ar    1  UNL1        0.0978
     31 C         140.5248  143.4456  162.1332 C.ar    1  UNL1        0.0383
     32 C         141.0716  144.0826  160.8901 C.ar    1  UNL1        0.0964
     33 N         140.0036  144.0375  159.8378 N.ar    1  UNL1       -0.2476
     34 C         140.1218  144.5647  158.4385 C.3     1  UNL1        0.1537
     35 N         138.7968  143.3725  160.4305 N.ar    1  UNL1       -0.1719
@<TRIPOS>BOND
     1    19    20    1
     2    20    18    1
     3    18    11    1
     4    11    12   ar
     5    12    13   ar
     6    13    14   ar
     7    14     1    1
     8     1     2   ar
     9     2     3   ar
    10     3     4   ar
    11     4     5   ar
    12     5     6   ar
    13     6     7   ar
    14     7    21    1
    15    21    22   am
    16    21    23    2
    17     7     8   ar
    18     8    26    1
    19    26    28    1
    20    28    29    1
    21    28    30    1
    22    30    31   ar
    23    31    32   ar
    24    32    33   ar
    25    33    34    1
    26    33    35   ar
    27     8     9   ar
    28     9    10   ar
    29    14    15   ar
    30    15    16    1
    31    15    17   ar
    32    17    11   ar
    33    10     1   ar
    34     9     4   ar
    35    35    30   ar
    36    22    24    1
    37    22    25    1
    38    26    27    1
@<TRIPOS>MOLECULE
*****
 35 38 0 0 0
SMALL
GASTEIGER

@<TRIPOS>ATOM
      1 C         143.0636  141.8575  165.1172 C.ar    1  UNL1        0.0038
      2 C         144.1466  141.2815  164.2539 C.ar    1  UNL1        0.0017
      3 C         144.2237  141.6499  162.8019 C.ar    1  UNL1        0.0191
      4 C         143.2179  142.5942  162.2132 C.ar    1  UNL1        0.0825
      5 N         143.2950  142.9626  160.7612 N.ar    1  UNL1       -0.2436
      6 C         142.2892  143.9070  160.1725 C.ar    1  UNL1        0.1045
      7 C         141.2062  144.4829  161.0360 C.ar    1  UNL1        0.0853
      8 C         141.1290  144.1145  162.4879 C.ar    1  UNL1        0.0522
      9 C         142.1349  143.1702  163.0766 C.ar    1  UNL1        0.0310
     10 C         142.0578  142.8018  164.5286 C.ar    1  UNL1        0.0028
     11 C         142.8321  140.7523  169.4733 C.ar    1  UNL1        0.0911
     12 C         143.2691  142.1297  169.0712 C.ar    1  UNL1        0.0174
     13 C         143.3463  142.4981  167.6192 C.ar    1  UNL1        0.0051
     14 C         142.9864  141.4891  166.5693 C.ar    1  UNL1        0.0460
     15 C         142.5494  140.1116  166.9714 C.ar    1  UNL1        0.2219
     16 F         142.1895  139.1026  165.9214 F       1  UNL1       -0.1832
     17 N         142.4722  139.7432  168.4233 N.ar    1  UNL1       -0.2199
     18 C         142.7549  140.3839  170.9253 C.3     1  UNL1        0.1876
     19 C         140.5658  141.7552  171.2032 C.3     1  UNL1        0.1747
     20 O         141.7312  141.0315  171.8099 O.3     1  UNL1       -0.3447
     21 C         140.2003  145.4273  160.4473 C.2     1  UNL1        0.2455
     22 N         139.9118  145.3939  158.9756 N.am    1  UNL1       -0.3252
     23 O         139.4830  146.4049  161.3303 O.2     1  UNL1       -0.2703
     24 H         140.3827  144.7523  158.3961 H       1  UNL1        0.1453
     25 H         139.2517  146.0137  158.5893 H       1  UNL1        0.1453
     26 N         140.0461  144.6905  163.3513 N.pl3   1  UNL1       -0.3292
     27 H         140.1230  145.6124  163.6880 H       1  UNL1        0.1471
     28 C         138.8458  143.8617  163.7017 C.3     1  UNL1        0.1117
     29 C         137.9336  144.2944  164.8110 C.3     1  UNL1        0.0278
     30 C         138.5579  142.6004  162.9428 C.ar    1  UNL1        0.0978
     31 C         138.0431  142.5156  161.5365 C.ar    1  UNL1        0.0383
     32 C         137.9012  141.0651  161.1815 C.ar    1  UNL1        0.0964
     33 N         138.3283  140.2534  162.3684 N.ar    1  UNL1       -0.2476
     34 C         138.3464  138.7559  162.4521 C.3     1  UNL1        0.1537
     35 N         138.7342  141.2023  163.4570 N.ar    1  UNL1       -0.1719
@<TRIPOS>BOND
     1    19    20    1
     2    20    18    1
     3    18    11    1
     4    11    12   ar
     5    12    13   ar
     6    13    14   ar
     7    14     1    1
     8     1     2   ar
     9     2     3   ar
    10     3     4   ar
    11     4     5   ar
    12     5     6   ar
    13     6     7   ar
    14     7    21    1
    15    21    22   am
    16    21    23    2
    17     7     8   ar
    18     8    26    1
    19    26    28    1
    20    28    29    1
    21    28    30    1
    22    30    31   ar
    23    31    32   ar
    24    32    33   ar
    25    33    34    1
    26    33    35   ar
    27     8     9   ar
    28     9    10   ar
    29    14    15   ar
    30    15    16    1
    31    15    17   ar
    32    17    11   ar
    33    10     1   ar
    34     9     4   ar
    35    35    30   ar
    36    22    24    1
    37    22    25    1
    38    26    27    1
@<TRIPOS>MOLECULE
*****
 35 38 0 0 0
SMALL
GASTEIGER

@<TRIPOS>ATOM
      1 C         139.0190  139.3189  165.1517 C.ar    1  UNL1        0.0038
      2 C         138.0884  138.3983  165.8841 C.ar    1  UNL1        0.0017
      3 C         137.9030  138.5424  167.3656 C.ar    1  UNL1        0.0191
      4 C         138.6482  139.6071  168.1147 C.ar    1  UNL1        0.0825
      5 N         138.4627  139.7511  169.5962 N.ar    1  UNL1       -0.2436
      6 C         139.2079  140.8158  170.3453 C.ar    1  UNL1        0.1045
      7 C         140.1385  141.7365  169.6129 C.ar    1  UNL1        0.0853
      8 C         140.3239  141.5924  168.1314 C.ar    1  UNL1        0.0522
      9 C         139.5787  140.5277  167.3823 C.ar    1  UNL1        0.0310
     10 C         139.7641  140.3836  165.9008 C.ar    1  UNL1        0.0028
     11 C         139.5753  138.8868  160.7071 C.ar    1  UNL1        0.0911
     12 C         140.5061  138.1852  161.6512 C.ar    1  UNL1        0.0174
     13 C         140.3207  138.3293  163.1328 C.ar    1  UNL1        0.0051
     14 C         139.2044  139.1749  163.6702 C.ar    1  UNL1        0.0460
     15 C         138.2736  139.8764  162.7261 C.ar    1  UNL1        0.2219
     16 F         137.1572  140.7221  163.2636 F       1  UNL1       -0.1832
     17 N         138.4590  139.7324  161.2446 N.ar    1  UNL1       -0.2199
     18 C         139.7607  138.7428  159.2256 C.3     1  UNL1        0.1876
     19 C         140.4741  139.7615  156.9445 C.3     1  UNL1        0.1747
     20 O         140.1526  139.9320  158.3998 O.3     1  UNL1       -0.3447
     21 C         140.8836  142.8012  170.3619 C.2     1  UNL1        0.2455
     22 N         141.8620  142.4195  171.4331 N.am    1  UNL1       -0.3252
     23 O         140.6505  144.2475  170.0399 O.2     1  UNL1       -0.2703
     24 H         142.0150  141.4702  171.6444 H       1  UNL1        0.1453
     25 H         142.3510  143.1183  171.9248 H       1  UNL1        0.1453
     26 N         141.2545  142.5131  167.3990 N.pl3   1  UNL1       -0.3292
     27 H         140.9120  143.3477  167.0048 H       1  UNL1        0.1471
     28 C         142.7069  142.1621  167.2671 C.3     1  UNL1        0.1117
     29 C         143.6127  142.2574  168.4589 C.3     1  UNL1        0.0278
     30 C         143.2534  141.7157  165.9435 C.ar    1  UNL1        0.0978
     31 C         143.8678  142.6006  164.8997 C.ar    1  UNL1        0.0383
     32 C         144.2756  141.7380  163.7423 C.ar    1  UNL1        0.0964
     33 N         143.9134  140.3199  164.0709 N.ar    1  UNL1       -0.2476
     34 C         144.1426  139.1253  163.1931 C.3     1  UNL1        0.1537
     35 N         143.2816  140.3062  165.4313 N.ar    1  UNL1       -0.1719
@<TRIPOS>BOND
     1    19    20    1
     2    20    18    1
     3    18    11    1
     4    11    12   ar
     5    12    13   ar
     6    13    14   ar
     7    14     1    1
     8     1     2   ar
     9     2     3   ar
    10     3     4   ar
    11     4     5   ar
    12     5     6   ar
    13     6     7   ar
    14     7    21    1
    15    21    22   am
    16    21    23    2
    17     7     8   ar
    18     8    26    1
    19    26    28    1
    20    28    29    1
    21    28    30    1
    22    30    31   ar
    23    31    32   ar
    24    32    33   ar
    25    33    34    1
    26    33    35   ar
    27     8     9   ar
    28     9    10   ar
    29    14    15   ar
    30    15    16    1
    31    15    17   ar
    32    17    11   ar
    33    10     1   ar
    34     9     4   ar
    35    35    30   ar
    36    22    24    1
    37    22    25    1
    38    26    27    1
