@<TRIPOS>MOLECULE
*****
 34 38 0 0 0
SMALL
GASTEIGER

@<TRIPOS>ATOM
      1 N         139.9392  138.5016  162.0362 N.3     1  UNL1       -0.2695
      2 C         139.8468  138.2300  163.5085 C.3     1  UNL1        0.0939
      3 C         141.0674  138.3523  164.3718 C.3     1  UNL1        0.1107
      4 N         142.3804  138.7462  163.7628 N.am    1  UNL1       -0.2764
      5 C         143.6009  138.8685  164.6262 C.2     1  UNL1        0.2301
      6 O         144.9139  139.2624  164.0172 O.2     1  UNL1       -0.2745
      7 C         142.4728  139.0178  162.2905 C.3     1  UNL1        0.1107
      8 C         141.2522  138.8956  161.4273 C.3     1  UNL1        0.0939
      9 C         138.7187  138.3794  161.1729 C.3     1  UNL1        0.0769
     10 C         137.7643  139.5307  161.0561 C.3     1  UNL1        0.0433
     11 C         138.7147  141.9378  161.2856 C.ar    1  UNL1       -0.0264
     12 C         137.9800  140.7697  161.8737 C.ar    1  UNL1       -0.0249
     13 C         137.4610  140.8405  163.2792 C.ar    1  UNL1       -0.0043
     14 C         137.6767  142.0794  164.0968 C.ar    1  UNL1        0.0059
     15 C         138.4114  143.2476  163.5088 C.ar    1  UNL1        0.0748
     16 C         138.9304  143.1768  162.1033 C.ar    1  UNL1        0.0233
     17 C         139.6126  144.4766  161.7950 C.3     1  UNL1        0.2352
     18 O         139.5153  145.3507  163.0100 O.3     1  UNL1       -0.4404
     19 C         138.7729  144.5912  164.0693 C.2     1  UNL1        0.3413
     20 O         138.4489  145.0880  165.4470 O.2     1  UNL1       -0.2449
     21 C         138.3832  142.3470  158.7415 C.3     1  UNL1        0.0050
     22 C         139.2337  141.8669  159.8800 C.3     1  UNL1        0.0258
     23 C         143.5085  138.5968  166.0985 C.3     1  UNL1        0.1116
     24 C         142.7660  139.5465  166.9911 C.ar    1  UNL1       -0.0130
     25 C         142.4744  139.1668  168.4127 C.ar    1  UNL1       -0.0022
     26 C         141.7319  140.1165  169.3054 C.ar    1  UNL1        0.0190
     27 C         141.2810  141.4458  168.7765 C.ar    1  UNL1        0.0862
     28 C         141.5726  141.8253  167.3549 C.ar    1  UNL1        0.0190
     29 C         142.3151  140.8757  166.4622 C.ar    1  UNL1       -0.0022
     30 N         140.5385  142.3954  169.6692 N.ar    1  UNL1       -0.1886
     31 C         140.6147  143.8927  169.6212 C.ar    1  UNL1        0.2258
     32 N         139.7127  144.4371  170.6889 N.ar    1  UNL1       -0.1045
     33 N         139.0791  143.2763  171.3968 N.ar    1  UNL1       -0.0222
     34 N         139.5895  142.0145  170.7665 N.ar    1  UNL1       -0.0385
@<TRIPOS>BOND
     1    21    22    1
     2    22    11    1
     3    11    12   ar
     4    12    10    1
     5    10     9    1
     6     9     1    1
     7     1     2    1
     8     2     3    1
     9     3     4    1
    10     4     5   am
    11     5     6    2
    12     5    23    1
    13    23    24    1
    14    24    25   ar
    15    25    26   ar
    16    26    27   ar
    17    27    30    1
    18    30    31   ar
    19    31    32   ar
    20    32    33   ar
    21    33    34   ar
    22    27    28   ar
    23    28    29   ar
    24     4     7    1
    25     7     8    1
    26    12    13   ar
    27    13    14   ar
    28    14    15   ar
    29    15    16   ar
    30    16    17    1
    31    17    18    1
    32    18    19    1
    33    19    20    2
    34    16    11   ar
    35     8     1    1
    36    19    15    1
    37    29    24   ar
    38    34    30   ar
@<TRIPOS>MOLECULE
*****
 34 38 0 0 0
SMALL
GASTEIGER

@<TRIPOS>ATOM
      1 N         141.8870  138.9585  159.8825 N.3     1  UNL1       -0.2695
      2 C         141.9818  138.2473  161.1999 C.3     1  UNL1        0.0939
      3 C         142.9492  138.7249  162.2421 C.3     1  UNL1        0.1107
      4 N         143.8217  139.9136  161.9670 N.am    1  UNL1       -0.2764
      5 C         144.7890  140.3911  163.0092 C.2     1  UNL1        0.2301
      6 O         145.6616  141.5798  162.7342 O.2     1  UNL1       -0.2745
      7 C         143.7269  140.6247  160.6496 C.3     1  UNL1        0.1107
      8 C         142.7596  140.1471  159.6075 C.3     1  UNL1        0.0939
      9 C         140.9197  138.4809  158.8403 C.3     1  UNL1        0.0769
     10 C         139.4965  138.9539  158.8651 C.3     1  UNL1        0.0433
     11 C         138.4355  139.8711  161.0523 C.ar    1  UNL1       -0.0264
     12 C         139.1066  140.1138  159.7328 C.ar    1  UNL1       -0.0249
     13 C         139.3878  141.5162  159.2812 C.ar    1  UNL1       -0.0043
     14 C         138.9979  142.6760  160.1488 C.ar    1  UNL1        0.0059
     15 C         138.3268  142.4333  161.4682 C.ar    1  UNL1        0.0748
     16 C         138.0456  141.0309  161.9199 C.ar    1  UNL1        0.0233
     17 C         137.3761  141.1010  163.2604 C.3     1  UNL1        0.2352
     18 O         137.2436  142.5469  163.6371 O.3     1  UNL1       -0.4404
     19 C         137.8312  143.3703  162.5295 C.2     1  UNL1        0.3413
     20 O         137.9093  144.8677  162.4902 O.2     1  UNL1       -0.2449
     21 C         138.8115  137.9332  162.7414 C.3     1  UNL1        0.0050
     22 C         138.1543  138.4685  161.5039 C.3     1  UNL1        0.0258
     23 C         144.8838  139.6800  164.3265 C.3     1  UNL1        0.1116
     24 C         143.8867  139.9703  165.4089 C.ar    1  UNL1       -0.0130
     25 C         143.3626  141.3638  165.5916 C.ar    1  UNL1       -0.0022
     26 C         142.3654  141.6542  166.6740 C.ar    1  UNL1        0.0190
     27 C         141.8924  140.5511  167.5736 C.ar    1  UNL1        0.0862
     28 C         142.4165  139.1575  167.3908 C.ar    1  UNL1        0.0190
     29 C         143.4136  138.8671  166.3085 C.ar    1  UNL1       -0.0022
     30 N         140.8953  140.8413  168.6559 N.ar    1  UNL1       -0.1886
     31 C         140.5992  142.1893  169.2435 C.ar    1  UNL1        0.2258
     32 N         139.5401  142.0156  170.2914 N.ar    1  UNL1       -0.1045
     33 N         139.1815  140.5603  170.3515 N.ar    1  UNL1       -0.0222
     34 N         140.0191  139.8346  169.3406 N.ar    1  UNL1       -0.0385
@<TRIPOS>BOND
     1    21    22    1
     2    22    11    1
     3    11    12   ar
     4    12    10    1
     5    10     9    1
     6     9     1    1
     7     1     2    1
     8     2     3    1
     9     3     4    1
    10     4     5   am
    11     5     6    2
    12     5    23    1
    13    23    24    1
    14    24    25   ar
    15    25    26   ar
    16    26    27   ar
    17    27    30    1
    18    30    31   ar
    19    31    32   ar
    20    32    33   ar
    21    33    34   ar
    22    27    28   ar
    23    28    29   ar
    24     4     7    1
    25     7     8    1
    26    12    13   ar
    27    13    14   ar
    28    14    15   ar
    29    15    16   ar
    30    16    17    1
    31    17    18    1
    32    18    19    1
    33    19    20    2
    34    16    11   ar
    35     8     1    1
    36    19    15    1
    37    29    24   ar
    38    34    30   ar
@<TRIPOS>MOLECULE
*****
 34 38 0 0 0
SMALL
GASTEIGER

@<TRIPOS>ATOM
      1 N         142.9379  141.5676  161.1623 N.3     1  UNL1       -0.2695
      2 C         143.4277  141.4736  162.5770 C.3     1  UNL1        0.0939
      3 C         143.0758  140.2801  163.4147 C.3     1  UNL1        0.1107
      4 N         142.2342  139.1806  162.8378 N.am    1  UNL1       -0.2764
      5 C         141.8824  137.9872  163.6756 C.2     1  UNL1        0.2301
      6 O         141.0408  136.8877  163.0987 O.2     1  UNL1       -0.2745
      7 C         141.7444  139.2747  161.4231 C.3     1  UNL1        0.1107
      8 C         142.0963  140.4681  160.5854 C.3     1  UNL1        0.0939
      9 C         143.2897  142.7611  160.3246 C.3     1  UNL1        0.0769
     10 C         142.4728  144.0151  160.4251 C.3     1  UNL1        0.0433
     11 C         140.1057  143.8801  161.4877 C.ar    1  UNL1       -0.0264
     12 C         141.5615  144.2246  161.5981 C.ar    1  UNL1       -0.0249
     13 C         142.1060  144.7785  162.8813 C.ar    1  UNL1       -0.0043
     14 C         141.1947  144.9879  164.0542 C.ar    1  UNL1        0.0059
     15 C         139.7390  144.6435  163.9439 C.ar    1  UNL1        0.0748
     16 C         139.1945  144.0895  162.6606 C.ar    1  UNL1        0.0233
     17 C         137.7266  143.8442  162.8475 C.3     1  UNL1        0.2352
     18 O         137.3638  144.2465  164.2463 O.3     1  UNL1       -0.4404
     19 C         138.6076  144.7405  164.9239 C.2     1  UNL1        0.3413
     20 O         138.7031  145.2432  166.3339 O.2     1  UNL1       -0.2449
     21 C         138.9056  141.9771  160.1883 C.3     1  UNL1        0.0050
     22 C         139.5613  143.3261  160.2044 C.3     1  UNL1        0.0258
     23 C         142.3722  137.8932  165.0903 C.3     1  UNL1        0.1116
     24 C         141.9104  138.8900  166.1115 C.ar    1  UNL1       -0.0130
     25 C         142.8272  139.3026  167.2248 C.ar    1  UNL1       -0.0022
     26 C         142.3655  140.2996  168.2461 C.ar    1  UNL1        0.0190
     27 C         140.9870  140.8838  168.1542 C.ar    1  UNL1        0.0862
     28 C         140.0703  140.4712  167.0409 C.ar    1  UNL1        0.0190
     29 C         140.5320  139.4743  166.0195 C.ar    1  UNL1       -0.0022
     30 N         140.5252  141.8807  169.1754 N.ar    1  UNL1       -0.1886
     31 C         139.9588  141.5605  170.5269 C.ar    1  UNL1        0.2258
     32 N         139.6324  142.8547  171.2112 N.ar    1  UNL1       -0.1045
     33 N         139.9970  143.9750  170.2826 N.ar    1  UNL1       -0.0222
     34 N         140.5488  143.3729  169.0244 N.ar    1  UNL1       -0.0385
@<TRIPOS>BOND
     1    21    22    1
     2    22    11    1
     3    11    12   ar
     4    12    10    1
     5    10     9    1
     6     9     1    1
     7     1     2    1
     8     2     3    1
     9     3     4    1
    10     4     5   am
    11     5     6    2
    12     5    23    1
    13    23    24    1
    14    24    25   ar
    15    25    26   ar
    16    26    27   ar
    17    27    30    1
    18    30    31   ar
    19    31    32   ar
    20    32    33   ar
    21    33    34   ar
    22    27    28   ar
    23    28    29   ar
    24     4     7    1
    25     7     8    1
    26    12    13   ar
    27    13    14   ar
    28    14    15   ar
    29    15    16   ar
    30    16    17    1
    31    17    18    1
    32    18    19    1
    33    19    20    2
    34    16    11   ar
    35     8     1    1
    36    19    15    1
    37    29    24   ar
    38    34    30   ar
@<TRIPOS>MOLECULE
*****
 34 38 0 0 0
SMALL
GASTEIGER

@<TRIPOS>ATOM
      1 N         142.5138  139.7533  165.9905 N.3     1  UNL1       -0.2695
      2 C         142.2081  138.5105  165.2081 C.3     1  UNL1        0.0939
      3 C         142.6968  138.3739  163.7964 C.3     1  UNL1        0.1107
      4 N         143.4910  139.4800  163.1673 N.am    1  UNL1       -0.2764
      5 C         143.9795  139.3433  161.7557 C.2     1  UNL1        0.2301
      6 O         144.7737  140.4494  161.1265 O.2     1  UNL1       -0.2745
      7 C         143.7966  140.7227  163.9498 C.3     1  UNL1        0.1107
      8 C         143.3080  140.8593  165.3614 C.3     1  UNL1        0.0939
      9 C         142.0253  139.8899  167.4021 C.3     1  UNL1        0.0769
     10 C         140.7283  140.5894  167.6825 C.3     1  UNL1        0.0433
     11 C         139.0887  140.6187  165.6673 C.ar    1  UNL1       -0.0264
     12 C         140.0286  141.3393  166.5878 C.ar    1  UNL1       -0.0249
     13 C         140.2689  142.8096  166.4136 C.ar    1  UNL1       -0.0043
     14 C         139.5693  143.5594  165.3190 C.ar    1  UNL1        0.0059
     15 C         138.6294  142.8389  164.3985 C.ar    1  UNL1        0.0748
     16 C         138.3890  141.3685  164.5726 C.ar    1  UNL1        0.0233
     17 C         137.4145  140.9302  163.5200 C.3     1  UNL1        0.2352
     18 O         137.0525  142.1297  162.6952 O.3     1  UNL1       -0.4404
     19 C         137.8033  143.3093  163.2382 C.2     1  UNL1        0.3413
     20 O         137.7393  144.7129  162.7130 O.2     1  UNL1       -0.2449
     21 C         137.7919  138.6685  166.7920 C.3     1  UNL1        0.0050
     22 C         138.8484  139.1483  165.8415 C.3     1  UNL1        0.0258
     23 C         143.6738  138.1006  160.9732 C.3     1  UNL1        0.1116
     24 C         142.6079  138.1219  159.9181 C.ar    1  UNL1       -0.0130
     25 C         141.2469  138.6652  160.2380 C.ar    1  UNL1       -0.0022
     26 C         140.1808  138.6866  159.1828 C.ar    1  UNL1        0.0190
     27 C         140.4759  138.1646  157.8079 C.ar    1  UNL1        0.0862
     28 C         141.8371  137.6213  157.4881 C.ar    1  UNL1        0.0190
     29 C         142.9030  137.6000  158.5432 C.ar    1  UNL1       -0.0022
     30 N         139.4100  138.1860  156.7527 N.ar    1  UNL1       -0.1886
     31 C         138.7643  139.4111  156.1764 C.ar    1  UNL1        0.2258
     32 N         137.7579  138.9681  155.1562 N.ar    1  UNL1       -0.1045
     33 N         137.7816  137.4692  155.1018 N.ar    1  UNL1       -0.0222
     34 N         138.8028  136.9859  156.0886 N.ar    1  UNL1       -0.0385
@<TRIPOS>BOND
     1    21    22    1
     2    22    11    1
     3    11    12   ar
     4    12    10    1
     5    10     9    1
     6     9     1    1
     7     1     2    1
     8     2     3    1
     9     3     4    1
    10     4     5   am
    11     5     6    2
    12     5    23    1
    13    23    24    1
    14    24    25   ar
    15    25    26   ar
    16    26    27   ar
    17    27    30    1
    18    30    31   ar
    19    31    32   ar
    20    32    33   ar
    21    33    34   ar
    22    27    28   ar
    23    28    29   ar
    24     4     7    1
    25     7     8    1
    26    12    13   ar
    27    13    14   ar
    28    14    15   ar
    29    15    16   ar
    30    16    17    1
    31    17    18    1
    32    18    19    1
    33    19    20    2
    34    16    11   ar
    35     8     1    1
    36    19    15    1
    37    29    24   ar
    38    34    30   ar
@<TRIPOS>MOLECULE
*****
 34 38 0 0 0
SMALL
GASTEIGER

@<TRIPOS>ATOM
      1 N         138.6819  139.9433  160.6804 N.3     1  UNL1       -0.2695
      2 C         138.1990  140.8241  161.7945 C.3     1  UNL1        0.0939
      3 C         138.2175  140.3232  163.2083 C.3     1  UNL1        0.1107
      4 N         138.7188  138.9416  163.5081 N.am    1  UNL1       -0.2764
      5 C         138.7372  138.4409  164.9219 C.2     1  UNL1        0.2301
      6 O         139.2385  137.0593  165.2217 O.2     1  UNL1       -0.2745
      7 C         139.2017  138.0609  162.3940 C.3     1  UNL1        0.1107
      8 C         139.1832  138.5618  160.9802 C.3     1  UNL1        0.0939
      9 C         138.6635  140.4441  159.2666 C.3     1  UNL1        0.0769
     10 C         139.8898  141.0776  158.6793 C.3     1  UNL1        0.0433
     11 C         141.1978  142.6512  160.2803 C.ar    1  UNL1       -0.0264
     12 C         141.0833  141.3477  159.5470 C.ar    1  UNL1       -0.0249
     13 C         142.1621  140.3143  159.6813 C.ar    1  UNL1       -0.0043
     14 C         143.3555  140.5843  160.5490 C.ar    1  UNL1        0.0059
     15 C         143.4701  141.8878  161.2823 C.ar    1  UNL1        0.0748
     16 C         142.3913  142.9213  161.1479 C.ar    1  UNL1        0.0233
     17 C         142.7761  144.1047  161.9855 C.3     1  UNL1        0.2352
     18 O         144.0928  143.8025  162.6374 O.3     1  UNL1       -0.4404
     19 C         144.5217  142.4324  162.2028 C.2     1  UNL1        0.3413
     20 O         145.7811  141.7303  162.6162 O.2     1  UNL1       -0.2449
     21 C         140.3631  144.9226  159.3347 C.3     1  UNL1        0.0050
     22 C         140.1189  143.6847  160.1459 C.3     1  UNL1        0.0258
     23 C         138.2543  139.3217  166.0359 C.3     1  UNL1        0.1116
     24 C         139.2404  140.0850  166.8695 C.ar    1  UNL1       -0.0130
     25 C         139.2255  139.9469  168.3630 C.ar    1  UNL1       -0.0022
     26 C         140.2116  140.7103  169.1968 C.ar    1  UNL1        0.0190
     27 C         141.2125  141.6118  168.5369 C.ar    1  UNL1        0.0862
     28 C         141.2273  141.7499  167.0433 C.ar    1  UNL1        0.0190
     29 C         140.2413  140.9866  166.2096 C.ar    1  UNL1       -0.0022
     30 N         142.1985  142.3752  169.3705 N.ar    1  UNL1       -0.1886
     31 C         143.6926  142.2812  169.2757 C.ar    1  UNL1        0.2258
     32 N         144.2810  143.2146  170.2919 N.ar    1  UNL1       -0.1045
     33 N         143.1506  143.8854  171.0147 N.ar    1  UNL1       -0.0222
     34 N         141.8636  143.3665  170.4452 N.ar    1  UNL1       -0.0385
@<TRIPOS>BOND
     1    21    22    1
     2    22    11    1
     3    11    12   ar
     4    12    10    1
     5    10     9    1
     6     9     1    1
     7     1     2    1
     8     2     3    1
     9     3     4    1
    10     4     5   am
    11     5     6    2
    12     5    23    1
    13    23    24    1
    14    24    25   ar
    15    25    26   ar
    16    26    27   ar
    17    27    30    1
    18    30    31   ar
    19    31    32   ar
    20    32    33   ar
    21    33    34   ar
    22    27    28   ar
    23    28    29   ar
    24     4     7    1
    25     7     8    1
    26    12    13   ar
    27    13    14   ar
    28    14    15   ar
    29    15    16   ar
    30    16    17    1
    31    17    18    1
    32    18    19    1
    33    19    20    2
    34    16    11   ar
    35     8     1    1
    36    19    15    1
    37    29    24   ar
    38    34    30   ar
@<TRIPOS>MOLECULE
*****
 34 38 0 0 0
SMALL
GASTEIGER

@<TRIPOS>ATOM
      1 N         138.5420  141.3999  160.4708 N.3     1  UNL1       -0.2695
      2 C         138.0463  141.9918  161.7569 C.3     1  UNL1        0.0939
      3 C         138.1183  141.1952  163.0259 C.3     1  UNL1        0.1107
      4 N         138.6859  139.8069  163.0089 N.am    1  UNL1       -0.2764
      5 C         138.7578  139.0104  164.2779 C.2     1  UNL1        0.2301
      6 O         139.3254  137.6221  164.2609 O.2     1  UNL1       -0.2745
      7 C         139.1816  139.2150  161.7227 C.3     1  UNL1        0.1107
      8 C         139.1097  140.0116  160.4538 C.3     1  UNL1        0.0939
      9 C         138.4701  142.1964  159.2018 C.3     1  UNL1        0.0769
     10 C         139.4191  143.3361  158.9768 C.3     1  UNL1        0.0433
     11 C         141.7751  142.9940  160.0172 C.ar    1  UNL1       -0.0264
     12 C         140.4405  143.6788  160.0206 C.ar    1  UNL1       -0.0249
     13 C         140.1273  144.7062  161.0675 C.ar    1  UNL1       -0.0043
     14 C         141.1487  145.0489  162.1112 C.ar    1  UNL1        0.0059
     15 C         142.4832  144.3642  162.1079 C.ar    1  UNL1        0.0748
     16 C         142.7965  143.3367  161.0609 C.ar    1  UNL1        0.0233
     17 C         144.1869  142.8314  161.3087 C.3     1  UNL1        0.2352
     18 O         144.7330  143.5465  162.5088 O.3     1  UNL1       -0.4404
     19 C         143.6801  144.4939  163.0028 C.2     1  UNL1        0.3413
     20 O         143.8026  145.4100  164.1841 O.2     1  UNL1       -0.2449
     21 C         143.0276  142.3001  157.8493 C.3     1  UNL1        0.0050
     22 C         142.0883  141.9665  158.9702 C.3     1  UNL1        0.0258
     23 C         138.2621  139.6023  165.5640 C.3     1  UNL1        0.1116
     24 C         139.2174  140.3013  166.4851 C.ar    1  UNL1       -0.0130
     25 C         140.0624  141.4301  165.9733 C.ar    1  UNL1       -0.0022
     26 C         141.0179  142.1292  166.8945 C.ar    1  UNL1        0.0190
     27 C         141.1283  141.6996  168.3274 C.ar    1  UNL1        0.0862
     28 C         140.2832  140.5708  168.8391 C.ar    1  UNL1        0.0190
     29 C         139.3278  139.8717  167.9180 C.ar    1  UNL1       -0.0022
     30 N         142.0836  142.3986  169.2486 N.ar    1  UNL1       -0.1886
     31 C         143.5770  142.2584  169.2419 C.ar    1  UNL1        0.2258
     32 N         144.1296  143.1338  170.3274 N.ar    1  UNL1       -0.1045
     33 N         142.9777  143.8151  171.0050 N.ar    1  UNL1       -0.0222
     34 N         141.7133  143.3606  170.3382 N.ar    1  UNL1       -0.0385
@<TRIPOS>BOND
     1    21    22    1
     2    22    11    1
     3    11    12   ar
     4    12    10    1
     5    10     9    1
     6     9     1    1
     7     1     2    1
     8     2     3    1
     9     3     4    1
    10     4     5   am
    11     5     6    2
    12     5    23    1
    13    23    24    1
    14    24    25   ar
    15    25    26   ar
    16    26    27   ar
    17    27    30    1
    18    30    31   ar
    19    31    32   ar
    20    32    33   ar
    21    33    34   ar
    22    27    28   ar
    23    28    29   ar
    24     4     7    1
    25     7     8    1
    26    12    13   ar
    27    13    14   ar
    28    14    15   ar
    29    15    16   ar
    30    16    17    1
    31    17    18    1
    32    18    19    1
    33    19    20    2
    34    16    11   ar
    35     8     1    1
    36    19    15    1
    37    29    24   ar
    38    34    30   ar
@<TRIPOS>MOLECULE
*****
 34 38 0 0 0
SMALL
GASTEIGER

@<TRIPOS>ATOM
      1 N         142.2542  142.2011  159.7812 N.3     1  UNL1       -0.2695
      2 C         141.8701  141.0778  160.6980 C.3     1  UNL1        0.0939
      3 C         142.7838  140.6785  161.8187 C.3     1  UNL1        0.1107
      4 N         144.0816  141.4025  162.0224 N.am    1  UNL1       -0.2764
      5 C         144.9953  141.0032  163.1430 C.2     1  UNL1        0.2301
      6 O         146.2931  141.7272  163.3468 O.2     1  UNL1       -0.2745
      7 C         144.4657  142.5258  161.1055 C.3     1  UNL1        0.1107
      8 C         143.5520  142.9251  159.9850 C.3     1  UNL1        0.0939
      9 C         141.3406  142.6004  158.6606 C.3     1  UNL1        0.0769
     10 C         140.1463  143.4645  158.9383 C.3     1  UNL1        0.0433
     11 C         138.7409  142.7712  161.0106 C.ar    1  UNL1       -0.0264
     12 C         139.7097  143.7085  160.3525 C.ar    1  UNL1       -0.0249
     13 C         140.2417  144.8897  161.1085 C.ar    1  UNL1       -0.0043
     14 C         139.8051  145.1337  162.5226 C.ar    1  UNL1        0.0059
     15 C         138.8364  144.1965  163.1807 C.ar    1  UNL1        0.0748
     16 C         138.3043  143.0152  162.4248 C.ar    1  UNL1        0.0233
     17 C         137.3682  142.2695  163.3290 C.3     1  UNL1        0.2352
     18 O         137.3218  142.9899  164.6439 O.3     1  UNL1       -0.4404
     19 C         138.2291  144.1809  164.5522 C.2     1  UNL1        0.3413
     20 O         138.4844  145.1806  165.6410 O.2     1  UNL1       -0.2449
     21 C         138.4489  140.2011  160.7678 C.3     1  UNL1        0.0050
     22 C         138.2088  141.5899  160.2546 C.3     1  UNL1        0.0258
     23 C         144.6111  139.8799  164.0599 C.3     1  UNL1        0.1116
     24 C         143.6642  140.1296  165.1960 C.ar    1  UNL1       -0.0130
     25 C         142.9626  138.9788  165.8543 C.ar    1  UNL1       -0.0022
     26 C         142.0155  139.2285  166.9905 C.ar    1  UNL1        0.0190
     27 C         141.7702  140.6290  167.4684 C.ar    1  UNL1        0.0862
     28 C         142.4719  141.7798  166.8101 C.ar    1  UNL1        0.0190
     29 C         143.4189  141.5301  165.6739 C.ar    1  UNL1       -0.0022
     30 N         140.8233  140.8788  168.6046 N.ar    1  UNL1       -0.1886
     31 C         140.5718  142.2001  169.2686 C.ar    1  UNL1        0.2258
     32 N         139.5547  141.9889  170.3506 N.ar    1  UNL1       -0.1045
     33 N         139.1774  140.5371  170.3554 N.ar    1  UNL1       -0.0222
     34 N         139.9616  139.8510  169.2763 N.ar    1  UNL1       -0.0385
@<TRIPOS>BOND
     1    21    22    1
     2    22    11    1
     3    11    12   ar
     4    12    10    1
     5    10     9    1
     6     9     1    1
     7     1     2    1
     8     2     3    1
     9     3     4    1
    10     4     5   am
    11     5     6    2
    12     5    23    1
    13    23    24    1
    14    24    25   ar
    15    25    26   ar
    16    26    27   ar
    17    27    30    1
    18    30    31   ar
    19    31    32   ar
    20    32    33   ar
    21    33    34   ar
    22    27    28   ar
    23    28    29   ar
    24     4     7    1
    25     7     8    1
    26    12    13   ar
    27    13    14   ar
    28    14    15   ar
    29    15    16   ar
    30    16    17    1
    31    17    18    1
    32    18    19    1
    33    19    20    2
    34    16    11   ar
    35     8     1    1
    36    19    15    1
    37    29    24   ar
    38    34    30   ar
@<TRIPOS>MOLECULE
*****
 34 38 0 0 0
SMALL
GASTEIGER

@<TRIPOS>ATOM
      1 N         139.8776  142.0429  160.8431 N.3     1  UNL1       -0.2695
      2 C         139.0157  142.0492  162.0708 C.3     1  UNL1        0.0939
      3 C         138.9028  140.8137  162.9141 C.3     1  UNL1        0.1107
      4 N         139.6516  139.5721  162.5297 N.am    1  UNL1       -0.2764
      5 C         139.5386  138.3368  163.3731 C.2     1  UNL1        0.2301
      6 O         140.2874  137.0953  162.9887 O.2     1  UNL1       -0.2745
      7 C         140.5134  139.5660  161.3020 C.3     1  UNL1        0.1107
      8 C         140.6264  140.8013  160.4587 C.3     1  UNL1        0.0939
      9 C         139.9906  143.2782  159.9998 C.3     1  UNL1        0.0769
     10 C         141.1471  144.2140  160.1915 C.3     1  UNL1        0.0433
     11 C         143.1901  143.1111  161.3578 C.ar    1  UNL1       -0.0264
     12 C         142.0373  144.0704  161.3903 C.ar    1  UNL1       -0.0249
     13 C         141.7748  144.8859  162.6215 C.ar    1  UNL1       -0.0043
     14 C         142.6649  144.7423  163.8202 C.ar    1  UNL1        0.0059
     15 C         143.8177  143.7831  163.7877 C.ar    1  UNL1        0.0748
     16 C         144.0803  142.9675  162.5565 C.ar    1  UNL1        0.0233
     17 C         145.2832  142.1099  162.8164 C.3     1  UNL1        0.2352
     18 O         145.7640  142.3955  164.2082 O.3     1  UNL1       -0.4404
     19 C         144.8583  143.4296  164.8085 C.2     1  UNL1        0.3413
     20 O         144.9732  144.0085  166.1875 O.2     1  UNL1       -0.2449
     21 C         144.5312  142.7084  159.1694 C.3     1  UNL1        0.0050
     22 C         143.4526  142.2955  160.1265 C.3     1  UNL1        0.0258
     23 C         138.6768  138.3431  164.6008 C.3     1  UNL1        0.1116
     24 C         139.1607  139.0115  165.8533 C.ar    1  UNL1       -0.0130
     25 C         138.2741  139.0718  167.0618 C.ar    1  UNL1       -0.0022
     26 C         138.7581  139.7402  168.3145 C.ar    1  UNL1        0.0190
     27 C         140.1286  140.3483  168.3586 C.ar    1  UNL1        0.0862
     28 C         141.0152  140.2879  167.1501 C.ar    1  UNL1        0.0190
     29 C         140.5312  139.6195  165.8975 C.ar    1  UNL1       -0.0022
     30 N         140.6126  141.0166  169.6112 N.ar    1  UNL1       -0.1886
     31 C         141.8363  141.8751  169.7362 C.ar    1  UNL1        0.2258
     32 N         141.9378  142.3329  171.1610 N.ar    1  UNL1       -0.1045
     33 N         140.7768  141.7574  171.9167 N.ar    1  UNL1       -0.0222
     34 N         139.9578  140.9439  170.9588 N.ar    1  UNL1       -0.0385
@<TRIPOS>BOND
     1    21    22    1
     2    22    11    1
     3    11    12   ar
     4    12    10    1
     5    10     9    1
     6     9     1    1
     7     1     2    1
     8     2     3    1
     9     3     4    1
    10     4     5   am
    11     5     6    2
    12     5    23    1
    13    23    24    1
    14    24    25   ar
    15    25    26   ar
    16    26    27   ar
    17    27    30    1
    18    30    31   ar
    19    31    32   ar
    20    32    33   ar
    21    33    34   ar
    22    27    28   ar
    23    28    29   ar
    24     4     7    1
    25     7     8    1
    26    12    13   ar
    27    13    14   ar
    28    14    15   ar
    29    15    16   ar
    30    16    17    1
    31    17    18    1
    32    18    19    1
    33    19    20    2
    34    16    11   ar
    35     8     1    1
    36    19    15    1
    37    29    24   ar
    38    34    30   ar
@<TRIPOS>MOLECULE
*****
 34 38 0 0 0
SMALL
GASTEIGER

@<TRIPOS>ATOM
      1 N         142.9630  139.7606  160.4175 N.3     1  UNL1       -0.2695
      2 C         143.4004  139.4696  161.8225 C.3     1  UNL1        0.0939
      3 C         142.4420  138.8431  162.7917 C.3     1  UNL1        0.1107
      4 N         141.0464  138.5078  162.3559 N.am    1  UNL1       -0.2764
      5 C         140.0882  137.8814  163.3251 C.2     1  UNL1        0.2301
      6 O         138.6926  137.5461  162.8893 O.2     1  UNL1       -0.2745
      7 C         140.6092  138.7989  160.9508 C.3     1  UNL1        0.1107
      8 C         141.5675  139.4253  159.9817 C.3     1  UNL1        0.0939
      9 C         143.9213  140.3870  159.4483 C.3     1  UNL1        0.0769
     10 C         144.2178  141.8552  159.5296 C.3     1  UNL1        0.0433
     11 C         143.4287  143.3985  161.4651 C.ar    1  UNL1       -0.0264
     12 C         143.2026  142.7943  160.1108 C.ar    1  UNL1       -0.0249
     13 C         141.9617  143.1293  159.3377 C.ar    1  UNL1       -0.0043
     14 C         140.9466  144.0683  159.9188 C.ar    1  UNL1        0.0059
     15 C         141.1725  144.6725  161.2731 C.ar    1  UNL1        0.0748
     16 C         142.4136  144.3376  162.0462 C.ar    1  UNL1        0.0233
     17 C         142.3638  145.0814  163.3478 C.3     1  UNL1        0.2352
     18 O         141.0920  145.8761  163.3791 O.3     1  UNL1       -0.4404
     19 C         140.3557  145.6234  162.0969 C.2     1  UNL1        0.3413
     20 O         139.0347  146.2173  161.7069 O.2     1  UNL1       -0.2449
     21 C         144.5685  142.2979  163.5241 C.3     1  UNL1        0.0050
     22 C         144.6697  143.0635  162.2381 C.3     1  UNL1        0.0258
     23 C         140.5255  137.5903  164.7301 C.3     1  UNL1        0.1116
     24 C         140.4246  138.6543  165.7825 C.ar    1  UNL1       -0.0130
     25 C         141.6334  139.4632  166.1494 C.ar    1  UNL1       -0.0022
     26 C         141.5326  140.5273  167.2019 C.ar    1  UNL1        0.0190
     27 C         140.2231  140.7825  167.8874 C.ar    1  UNL1        0.0862
     28 C         139.0144  139.9736  167.5205 C.ar    1  UNL1        0.0190
     29 C         139.1151  138.9095  166.4681 C.ar    1  UNL1       -0.0022
     30 N         140.1223  141.8465  168.9399 N.ar    1  UNL1       -0.1886
     31 C         139.6348  141.6533  170.3452 C.ar    1  UNL1        0.2258
     32 N         139.7025  142.9780  171.0456 N.ar    1  UNL1       -0.1045
     33 N         140.2318  143.9900  170.0731 N.ar    1  UNL1       -0.0222
     34 N         140.4912  143.2907  168.7717 N.ar    1  UNL1       -0.0385
@<TRIPOS>BOND
     1    21    22    1
     2    22    11    1
     3    11    12   ar
     4    12    10    1
     5    10     9    1
     6     9     1    1
     7     1     2    1
     8     2     3    1
     9     3     4    1
    10     4     5   am
    11     5     6    2
    12     5    23    1
    13    23    24    1
    14    24    25   ar
    15    25    26   ar
    16    26    27   ar
    17    27    30    1
    18    30    31   ar
    19    31    32   ar
    20    32    33   ar
    21    33    34   ar
    22    27    28   ar
    23    28    29   ar
    24     4     7    1
    25     7     8    1
    26    12    13   ar
    27    13    14   ar
    28    14    15   ar
    29    15    16   ar
    30    16    17    1
    31    17    18    1
    32    18    19    1
    33    19    20    2
    34    16    11   ar
    35     8     1    1
    36    19    15    1
    37    29    24   ar
    38    34    30   ar
