@<TRIPOS>MOLECULE
*****
 34 37 0 0 0
SMALL
GASTEIGER

@<TRIPOS>ATOM
      1 C         141.8574  145.1994  163.0127 C.3     1  UNL1        0.0898
      2 C         141.5785  143.9545  163.8017 C.3     1  UNL1        0.0224
      3 C         142.7081  143.0552  164.2080 C.3     1  UNL1        0.0191
      4 C         142.4292  141.8104  164.9971 C.3     1  UNL1        0.0722
      5 N         141.0206  141.4648  165.3798 N.3     1  UNL1       -0.2724
      6 C         139.8909  142.3641  164.9734 C.3     1  UNL1        0.0722
      7 C         140.1699  143.6090  164.1844 C.3     1  UNL1        0.0191
      8 C         140.7417  140.2200  166.1688 C.3     1  UNL1        0.0768
      9 C         140.3903  140.3172  167.6238 C.3     1  UNL1        0.0437
     10 C         141.1629  141.2370  168.5221 C.ar    1  UNL1       -0.0207
     11 C         142.5965  140.9385  168.8473 C.ar    1  UNL1       -0.0030
     12 C         143.3691  141.8583  169.7456 C.ar    1  UNL1        0.0138
     13 C         142.7081  143.0767  170.3187 C.ar    1  UNL1        0.0415
     14 N         143.4807  143.9966  171.2171 N.pl3   1  UNL1       -0.3570
     15 C         141.2745  143.3753  169.9936 C.ar    1  UNL1        0.0138
     16 C         140.5019  142.4555  169.0953 C.ar    1  UNL1       -0.0030
     17 H         144.4216  143.8007  171.4305 H       1  UNL1        0.1424
     18 H         143.0469  144.7963  171.5932 H       1  UNL1        0.1424
     19 C         140.6131  145.4468  160.7453 C.2     1  UNL1        0.2654
     20 O         139.3496  145.7918  161.4764 O.2     1  UNL1       -0.2684
     21 N         141.8670  145.1506  161.5135 N.am    1  UNL1       -0.2996
     22 H         142.6963  144.9241  161.0337 H       1  UNL1        0.1498
     23 N         140.0595  145.8003  156.9199 N.ar    1  UNL1       -0.2527
     24 N         139.6930  146.1417  158.3338 N.ar    1  UNL1       -0.1647
     25 C         140.6227  145.3980  159.2461 C.ar    1  UNL1        0.1554
     26 C         141.5639  144.5970  158.3961 C.ar    1  UNL1        0.0411
     27 C         142.6929  143.6733  158.7456 C.ar    1  UNL1        0.0032
     28 C         143.4738  142.9982  157.6573 C.ar    1  UNL1        0.0001
     29 C         143.1257  143.2468  156.2196 C.ar    1  UNL1        0.0015
     30 C         141.9967  144.1705  155.8701 C.ar    1  UNL1        0.0188
     31 C         141.2158  144.8456  156.9584 C.ar    1  UNL1        0.0794
     32 C         138.1523  145.6503  155.1619 C.3     1  UNL1        0.0263
     33 C         139.3877  146.3220  155.6844 C.3     1  UNL1        0.1053
     34 C         139.9512  147.5152  154.9712 C.3     1  UNL1        0.0263
@<TRIPOS>BOND
     1    32    33    1
     2    33    34    1
     3    33    23    1
     4    23    24   ar
     5    24    25   ar
     6    25    19    1
     7    19    20    2
     8    19    21   am
     9    21     1    1
    10     1     2    1
    11     2     3    1
    12     3     4    1
    13     4     5    1
    14     5     8    1
    15     8     9    1
    16     9    10    1
    17    10    11   ar
    18    11    12   ar
    19    12    13   ar
    20    13    14    1
    21    13    15   ar
    22    15    16   ar
    23     5     6    1
    24     6     7    1
    25    25    26   ar
    26    26    27   ar
    27    27    28   ar
    28    28    29   ar
    29    29    30   ar
    30    30    31   ar
    31    31    23   ar
    32     7     2    1
    33    31    26   ar
    34    16    10   ar
    35    21    22    1
    36    14    17    1
    37    14    18    1
@<TRIPOS>MOLECULE
*****
 34 37 0 0 0
SMALL
GASTEIGER

@<TRIPOS>ATOM
      1 C         139.9143  146.1472  162.1989 C.3     1  UNL1        0.0898
      2 C         139.8053  144.9968  163.1552 C.3     1  UNL1        0.0224
      3 C         141.0345  144.4621  163.8284 C.3     1  UNL1        0.0191
      4 C         140.9255  143.3117  164.7847 C.3     1  UNL1        0.0722
      5 N         139.5873  142.6959  165.0679 N.3     1  UNL1       -0.2724
      6 C         138.3581  143.2306  164.3947 C.3     1  UNL1        0.0722
      7 C         138.4672  144.3811  163.4383 C.3     1  UNL1        0.0191
      8 C         139.4784  141.5454  166.0242 C.3     1  UNL1        0.0768
      9 C         140.7117  140.9890  166.6718 C.3     1  UNL1        0.0437
     10 C         141.3440  141.7106  167.8248 C.ar    1  UNL1       -0.0207
     11 C         142.7847  141.4663  168.1632 C.ar    1  UNL1       -0.0030
     12 C         143.4172  142.1878  169.3162 C.ar    1  UNL1        0.0138
     13 C         142.6088  143.1537  170.1308 C.ar    1  UNL1        0.0415
     14 N         143.2412  143.8754  171.2838 N.pl3   1  UNL1       -0.3570
     15 C         141.1680  143.3980  169.7923 C.ar    1  UNL1        0.0138
     16 C         140.5356  142.6765  168.6394 C.ar    1  UNL1       -0.0030
     17 H         144.1868  143.7150  171.5059 H       1  UNL1        0.1424
     18 H         142.7106  144.5093  171.8184 H       1  UNL1        0.1424
     19 C         140.6374  145.3277  159.8418 C.2     1  UNL1        0.2654
     20 O         141.9690  144.9137  160.3943 O.2     1  UNL1       -0.2684
     21 N         139.6100  145.9445  160.7441 N.am    1  UNL1       -0.2996
     22 H         138.7360  146.2162  160.3815 H       1  UNL1        0.1498
     23 N         140.2228  145.4514  155.9846 N.ar    1  UNL1       -0.2527
     24 N         140.7334  146.0388  157.2669 N.ar    1  UNL1       -0.1647
     25 C         140.3332  145.1250  158.3870 C.ar    1  UNL1        0.1554
     26 C         139.5752  143.9728  157.7971 C.ar    1  UNL1        0.0411
     27 C         138.9384  142.7660  158.4201 C.ar    1  UNL1        0.0032
     28 C         138.2334  141.7610  157.5582 C.ar    1  UNL1        0.0001
     29 C         138.1651  141.9628  156.0734 C.ar    1  UNL1        0.0015
     30 C         138.8019  143.1695  155.4504 C.ar    1  UNL1        0.0188
     31 C         139.5070  144.1745  156.3123 C.ar    1  UNL1        0.0794
     32 C         139.9111  147.4273  154.3267 C.3     1  UNL1        0.0263
     33 C         140.3973  146.0378  154.6151 C.3     1  UNL1        0.1053
     34 C         141.0579  145.2350  153.5340 C.3     1  UNL1        0.0263
@<TRIPOS>BOND
     1    32    33    1
     2    33    34    1
     3    33    23    1
     4    23    24   ar
     5    24    25   ar
     6    25    19    1
     7    19    20    2
     8    19    21   am
     9    21     1    1
    10     1     2    1
    11     2     3    1
    12     3     4    1
    13     4     5    1
    14     5     8    1
    15     8     9    1
    16     9    10    1
    17    10    11   ar
    18    11    12   ar
    19    12    13   ar
    20    13    14    1
    21    13    15   ar
    22    15    16   ar
    23     5     6    1
    24     6     7    1
    25    25    26   ar
    26    26    27   ar
    27    27    28   ar
    28    28    29   ar
    29    29    30   ar
    30    30    31   ar
    31    31    23   ar
    32     7     2    1
    33    31    26   ar
    34    16    10   ar
    35    21    22    1
    36    14    17    1
    37    14    18    1
@<TRIPOS>MOLECULE
*****
 34 37 0 0 0
SMALL
GASTEIGER

@<TRIPOS>ATOM
      1 C         142.0670  145.1319  163.5249 C.3     1  UNL1        0.0898
      2 C         142.1938  143.8264  164.2526 C.3     1  UNL1        0.0224
      3 C         143.5219  143.4020  164.8058 C.3     1  UNL1        0.0191
      4 C         143.6486  142.0965  165.5336 C.3     1  UNL1        0.0722
      5 N         142.4473  141.2153  165.7081 N.3     1  UNL1       -0.2724
      6 C         141.1192  141.6397  165.1548 C.3     1  UNL1        0.0722
      7 C         140.9924  142.9453  164.4271 C.3     1  UNL1        0.0191
      8 C         142.5741  139.9098  166.4358 C.3     1  UNL1        0.0768
      9 C         142.6770  139.8921  167.9321 C.3     1  UNL1        0.0437
     10 C         141.7913  140.7797  168.7554 C.ar    1  UNL1       -0.0207
     11 C         140.4499  140.2865  169.2105 C.ar    1  UNL1       -0.0030
     12 C         139.5641  141.1740  170.0337 C.ar    1  UNL1        0.0138
     13 C         140.0199  142.5548  170.4018 C.ar    1  UNL1        0.0415
     14 N         139.1342  143.4425  171.2251 N.pl3   1  UNL1       -0.3570
     15 C         141.3614  143.0481  169.9467 C.ar    1  UNL1        0.0138
     16 C         142.2471  142.1606  169.1235 C.ar    1  UNL1       -0.0030
     17 H         138.2537  143.1187  171.5238 H       1  UNL1        0.1424
     18 H         139.4333  144.3488  171.4667 H       1  UNL1        0.1424
     19 C         141.9164  144.5677  160.9932 C.2     1  UNL1        0.2654
     20 O         143.2457  143.8770  161.0681 O.2     1  UNL1       -0.2684
     21 N         141.3270  145.1952  162.2217 N.am    1  UNL1       -0.2996
     22 H         140.4545  145.6486  162.1726 H       1  UNL1        0.1498
     23 N         140.3985  145.3624  157.5105 N.ar    1  UNL1       -0.2527
     24 N         141.3254  145.6940  158.6423 N.ar    1  UNL1       -0.1647
     25 C         141.1764  144.6310  159.6900 C.ar    1  UNL1        0.1554
     26 C         140.1575  143.6424  159.2058 C.ar    1  UNL1        0.0411
     27 C         139.6054  142.3890  159.8174 C.ar    1  UNL1        0.0032
     28 C         138.5725  141.5876  159.0820 C.ar    1  UNL1        0.0001
     29 C         138.0917  142.0396  157.7349 C.ar    1  UNL1        0.0015
     30 C         138.6438  143.2930  157.1233 C.ar    1  UNL1        0.0188
     31 C         139.6767  144.0944  157.8587 C.ar    1  UNL1        0.0794
     32 C         139.1752  147.2289  156.1801 C.3     1  UNL1        0.0263
     33 C         140.2240  146.1589  156.2514 C.3     1  UNL1        0.1053
     34 C         141.0983  145.8854  155.0637 C.3     1  UNL1        0.0263
@<TRIPOS>BOND
     1    32    33    1
     2    33    34    1
     3    33    23    1
     4    23    24   ar
     5    24    25   ar
     6    25    19    1
     7    19    20    2
     8    19    21   am
     9    21     1    1
    10     1     2    1
    11     2     3    1
    12     3     4    1
    13     4     5    1
    14     5     8    1
    15     8     9    1
    16     9    10    1
    17    10    11   ar
    18    11    12   ar
    19    12    13   ar
    20    13    14    1
    21    13    15   ar
    22    15    16   ar
    23     5     6    1
    24     6     7    1
    25    25    26   ar
    26    26    27   ar
    27    27    28   ar
    28    28    29   ar
    29    29    30   ar
    30    30    31   ar
    31    31    23   ar
    32     7     2    1
    33    31    26   ar
    34    16    10   ar
    35    21    22    1
    36    14    17    1
    37    14    18    1
@<TRIPOS>MOLECULE
*****
 34 37 0 0 0
SMALL
GASTEIGER

@<TRIPOS>ATOM
      1 C         144.9007  142.7229  163.2103 C.3     1  UNL1        0.0898
      2 C         143.7414  142.1501  163.9704 C.3     1  UNL1        0.0224
      3 C         142.6568  143.0538  164.4774 C.3     1  UNL1        0.0191
      4 C         141.4975  142.4810  165.2375 C.3     1  UNL1        0.0722
      5 N         141.4227  141.0043  165.4907 N.3     1  UNL1       -0.2724
      6 C         142.5072  140.1006  164.9837 C.3     1  UNL1        0.0722
      7 C         143.6666  140.6735  164.2235 C.3     1  UNL1        0.0191
      8 C         140.2633  140.4315  166.2508 C.3     1  UNL1        0.0768
      9 C         140.3839  140.1789  167.7244 C.3     1  UNL1        0.0437
     10 C         141.1520  141.1344  168.5888 C.ar    1  UNL1       -0.0207
     11 C         142.5915  140.8627  168.9114 C.ar    1  UNL1       -0.0030
     12 C         143.3597  141.8181  169.7757 C.ar    1  UNL1        0.0138
     13 C         142.6883  143.0452  170.3174 C.ar    1  UNL1        0.0415
     14 N         143.4565  144.0007  171.1817 N.pl3   1  UNL1       -0.3570
     15 C         141.2489  143.3170  169.9947 C.ar    1  UNL1        0.0138
     16 C         140.4807  142.3616  169.1304 C.ar    1  UNL1       -0.0030
     17 H         144.4013  143.8224  171.3935 H       1  UNL1        0.1424
     18 H         143.0159  144.8062  171.5372 H       1  UNL1        0.1424
     19 C         144.4029  142.7359  160.6603 C.2     1  UNL1        0.2654
     20 O         143.2983  143.7263  160.8810 O.2     1  UNL1       -0.2684
     21 N         145.2042  142.2342  161.8250 N.am    1  UNL1       -0.2996
     22 H         145.9292  141.5841  161.6802 H       1  UNL1        0.1498
     23 N         145.6820  142.0403  157.0624 N.ar    1  UNL1       -0.2527
     24 N         145.7077  142.8421  158.3298 N.ar    1  UNL1       -0.1647
     25 C         144.7064  142.2472  159.2750 C.ar    1  UNL1        0.1554
     26 C         144.0619  141.0776  158.5918 C.ar    1  UNL1        0.0411
     27 C         143.0039  140.1126  159.0383 C.ar    1  UNL1        0.0032
     28 C         142.5489  139.0197  158.1172 C.ar    1  UNL1        0.0001
     29 C         143.1518  138.8918  156.7496 C.ar    1  UNL1        0.0015
     30 C         144.2098  139.8568  156.3032 C.ar    1  UNL1        0.0188
     31 C         144.6648  140.9497  157.2243 C.ar    1  UNL1        0.0794
     32 C         148.0086  142.0700  155.9064 C.3     1  UNL1        0.0263
     33 C         146.5253  142.2858  155.8465 C.3     1  UNL1        0.1053
     34 C         145.8856  142.7471  154.5706 C.3     1  UNL1        0.0263
@<TRIPOS>BOND
     1    32    33    1
     2    33    34    1
     3    33    23    1
     4    23    24   ar
     5    24    25   ar
     6    25    19    1
     7    19    20    2
     8    19    21   am
     9    21     1    1
    10     1     2    1
    11     2     3    1
    12     3     4    1
    13     4     5    1
    14     5     8    1
    15     8     9    1
    16     9    10    1
    17    10    11   ar
    18    11    12   ar
    19    12    13   ar
    20    13    14    1
    21    13    15   ar
    22    15    16   ar
    23     5     6    1
    24     6     7    1
    25    25    26   ar
    26    26    27   ar
    27    27    28   ar
    28    28    29   ar
    29    29    30   ar
    30    30    31   ar
    31    31    23   ar
    32     7     2    1
    33    31    26   ar
    34    16    10   ar
    35    21    22    1
    36    14    17    1
    37    14    18    1
@<TRIPOS>MOLECULE
*****
 34 37 0 0 0
SMALL
GASTEIGER

@<TRIPOS>ATOM
      1 C         142.2229  137.9856  157.6667 C.3     1  UNL1        0.0898
      2 C         142.1888  138.3864  159.1117 C.3     1  UNL1        0.0224
      3 C         141.3162  139.5234  159.5543 C.3     1  UNL1        0.0191
      4 C         141.2821  139.9242  160.9993 C.3     1  UNL1        0.0722
      5 N         142.1207  139.1881  162.0019 N.3     1  UNL1       -0.2724
      6 C         142.9933  138.0511  161.5593 C.3     1  UNL1        0.0722
      7 C         143.0274  137.6503  160.1141 C.3     1  UNL1        0.0191
      8 C         142.0866  139.5889  163.4469 C.3     1  UNL1        0.0768
      9 C         140.8747  140.2725  164.0072 C.3     1  UNL1        0.0437
     10 C         139.9123  139.5075  164.8666 C.ar    1  UNL1       -0.0207
     11 C         139.5074  138.1151  164.4828 C.ar    1  UNL1       -0.0030
     12 C         138.5451  137.3500  165.3421 C.ar    1  UNL1        0.0138
     13 C         137.9876  137.9774  166.5853 C.ar    1  UNL1        0.0415
     14 N         137.0251  137.2123  167.4447 N.pl3   1  UNL1       -0.3570
     15 C         138.3924  139.3698  166.9692 C.ar    1  UNL1        0.0138
     16 C         139.3548  140.1348  166.1098 C.ar    1  UNL1       -0.0030
     17 H         136.7594  136.2984  167.1928 H       1  UNL1        0.1424
     18 H         136.6592  137.6241  168.2607 H       1  UNL1        0.1424
     19 C         142.9227  135.7803  156.4845 C.2     1  UNL1        0.2654
     20 O         144.2267  136.4067  156.0881 O.2     1  UNL1       -0.2684
     21 N         141.9208  136.5698  157.2738 N.am    1  UNL1       -0.2996
     22 H         141.0649  136.1587  157.5340 H       1  UNL1        0.1498
     23 N         141.6181  132.4292  155.0241 N.ar    1  UNL1       -0.2527
     24 N         141.5732  133.9259  155.1115 N.ar    1  UNL1       -0.1647
     25 C         142.6205  134.3646  156.0916 C.ar    1  UNL1        0.1554
     26 C         143.3127  133.1389  156.6101 C.ar    1  UNL1        0.0411
     27 C         144.4270  132.9575  157.5976 C.ar    1  UNL1        0.0032
     28 C         144.9217  131.5800  157.9254 C.ar    1  UNL1        0.0001
     29 C         144.3022  130.3838  157.2656 C.ar    1  UNL1        0.0015
     30 C         143.1879  130.5652  156.2781 C.ar    1  UNL1        0.0188
     31 C         142.6931  131.9427  155.9503 C.ar    1  UNL1        0.0794
     32 C         139.7872  130.6002  154.7937 C.3     1  UNL1        0.0263
     33 C         140.7418  131.5696  154.1619 C.3     1  UNL1        0.1053
     34 C         140.8200  131.6795  152.6681 C.3     1  UNL1        0.0263
@<TRIPOS>BOND
     1    32    33    1
     2    33    34    1
     3    33    23    1
     4    23    24   ar
     5    24    25   ar
     6    25    19    1
     7    19    20    2
     8    19    21   am
     9    21     1    1
    10     1     2    1
    11     2     3    1
    12     3     4    1
    13     4     5    1
    14     5     8    1
    15     8     9    1
    16     9    10    1
    17    10    11   ar
    18    11    12   ar
    19    12    13   ar
    20    13    14    1
    21    13    15   ar
    22    15    16   ar
    23     5     6    1
    24     6     7    1
    25    25    26   ar
    26    26    27   ar
    27    27    28   ar
    28    28    29   ar
    29    29    30   ar
    30    30    31   ar
    31    31    23   ar
    32     7     2    1
    33    31    26   ar
    34    16    10   ar
    35    21    22    1
    36    14    17    1
    37    14    18    1
@<TRIPOS>MOLECULE
*****
 34 37 0 0 0
SMALL
GASTEIGER

@<TRIPOS>ATOM
      1 C         143.5646  138.0207  162.0864 C.3     1  UNL1        0.0898
      2 C         142.6719  138.6253  163.1292 C.3     1  UNL1        0.0224
      3 C         141.5559  137.8167  163.7215 C.3     1  UNL1        0.0191
      4 C         140.6632  138.4214  164.7643 C.3     1  UNL1        0.0722
      5 N         140.8865  139.8346  165.2149 N.3     1  UNL1       -0.2724
      6 C         142.0024  140.6432  164.6226 C.3     1  UNL1        0.0722
      7 C         142.8952  140.0385  163.5797 C.3     1  UNL1        0.0191
      8 C         139.9938  140.4392  166.2577 C.3     1  UNL1        0.0768
      9 C         140.2228  140.1356  167.7087 C.3     1  UNL1        0.0437
     10 C         141.0178  141.0835  168.5568 C.ar    1  UNL1       -0.0207
     11 C         140.3237  142.1824  169.3056 C.ar    1  UNL1       -0.0030
     12 C         141.1186  143.1304  170.1538 C.ar    1  UNL1        0.0138
     13 C         142.6076  142.9794  170.2532 C.ar    1  UNL1        0.0415
     14 N         143.4026  143.9274  171.1014 N.pl3   1  UNL1       -0.3570
     15 C         143.3017  141.8805  169.5044 C.ar    1  UNL1        0.0138
     16 C         142.5068  140.9326  168.6562 C.ar    1  UNL1       -0.0030
     17 H         142.9471  144.6486  171.5929 H       1  UNL1        0.1424
     18 H         144.3800  143.8283  171.1667 H       1  UNL1        0.1424
     19 C         143.1103  138.0703  159.5287 C.2     1  UNL1        0.2654
     20 O         143.8479  139.3720  159.4230 O.2     1  UNL1       -0.2684
     21 N         142.9686  137.3946  160.8605 N.am    1  UNL1       -0.2996
     22 H         142.4844  136.5402  160.9299 H       1  UNL1        0.1498
     23 N         142.1197  135.9431  156.4370 N.ar    1  UNL1       -0.2527
     24 N         143.0094  136.2062  157.6156 N.ar    1  UNL1       -0.1647
     25 C         142.5143  137.4442  158.3028 C.ar    1  UNL1        0.1554
     26 C         141.3186  137.9461  157.5490 C.ar    1  UNL1        0.0411
     27 C         140.4204  139.1281  157.7637 C.ar    1  UNL1        0.0032
     28 C         139.2783  139.3823  156.8251 C.ar    1  UNL1        0.0001
     29 C         139.0344  138.4546  155.6720 C.ar    1  UNL1        0.0015
     30 C         139.9326  137.2726  155.4573 C.ar    1  UNL1        0.0188
     31 C         141.0747  137.0184  156.3959 C.ar    1  UNL1        0.0794
     32 C         142.4801  135.0807  154.0128 C.3     1  UNL1        0.0263
     33 C         142.2517  134.8045  155.4694 C.3     1  UNL1        0.1053
     34 C         142.1554  133.3898  155.9583 C.3     1  UNL1        0.0263
@<TRIPOS>BOND
     1    32    33    1
     2    33    34    1
     3    33    23    1
     4    23    24   ar
     5    24    25   ar
     6    25    19    1
     7    19    20    2
     8    19    21   am
     9    21     1    1
    10     1     2    1
    11     2     3    1
    12     3     4    1
    13     4     5    1
    14     5     8    1
    15     8     9    1
    16     9    10    1
    17    10    11   ar
    18    11    12   ar
    19    12    13   ar
    20    13    14    1
    21    13    15   ar
    22    15    16   ar
    23     5     6    1
    24     6     7    1
    25    25    26   ar
    26    26    27   ar
    27    27    28   ar
    28    28    29   ar
    29    29    30   ar
    30    30    31   ar
    31    31    23   ar
    32     7     2    1
    33    31    26   ar
    34    16    10   ar
    35    21    22    1
    36    14    17    1
    37    14    18    1
@<TRIPOS>MOLECULE
*****
 34 37 0 0 0
SMALL
GASTEIGER

@<TRIPOS>ATOM
      1 C         142.4658  144.6121  163.5078 C.3     1  UNL1        0.0898
      2 C         142.8879  143.8939  162.2604 C.3     1  UNL1        0.0224
      3 C         144.2857  143.3640  162.1366 C.3     1  UNL1        0.0191
      4 C         144.7077  142.6458  160.8892 C.3     1  UNL1        0.0722
      5 N         143.7320  142.4575  159.7655 N.3     1  UNL1       -0.2724
      6 C         142.3342  142.9874  159.8893 C.3     1  UNL1        0.0722
      7 C         141.9121  143.7057  161.1368 C.3     1  UNL1        0.0191
      8 C         144.1541  141.7393  158.5181 C.3     1  UNL1        0.0768
      9 C         143.8478  140.2803  158.3526 C.3     1  UNL1        0.0437
     10 C         143.2534  139.5049  159.4908 C.ar    1  UNL1       -0.0207
     11 C         144.1350  138.9946  160.5918 C.ar    1  UNL1       -0.0030
     12 C         143.5408  138.2192  161.7301 C.ar    1  UNL1        0.0138
     13 C         142.0649  137.9541  161.7672 C.ar    1  UNL1        0.0415
     14 N         141.4706  137.1786  162.9054 N.pl3   1  UNL1       -0.3570
     15 C         141.1833  138.4643  160.6661 C.ar    1  UNL1        0.0138
     16 C         141.7775  139.2397  159.5279 C.ar    1  UNL1       -0.0030
     17 H         142.0492  136.8437  163.6281 H       1  UNL1        0.1424
     18 H         140.5019  137.0046  162.9298 H       1  UNL1        0.1424
     19 C         142.2311  142.8581  165.4101 C.2     1  UNL1        0.2654
     20 O         143.6836  142.5114  165.2695 O.2     1  UNL1       -0.2684
     21 N         141.6221  143.9085  164.5292 N.am    1  UNL1       -0.2996
     22 H         140.6688  144.1361  164.6214 H       1  UNL1        0.1498
     23 N         140.3829  141.5025  168.5424 N.ar    1  UNL1       -0.2527
     24 N         141.3668  142.4378  167.9043 N.ar    1  UNL1       -0.1647
     25 C         141.3875  142.1545  166.4315 C.ar    1  UNL1        0.1554
     26 C         140.4164  141.0441  166.1593 C.ar    1  UNL1        0.0411
     27 C         140.0173  140.3480  164.8920 C.ar    1  UNL1        0.0032
     28 C         138.9973  139.2488  164.9294 C.ar    1  UNL1        0.0001
     29 C         138.3765  138.8458  166.2341 C.ar    1  UNL1        0.0015
     30 C         138.7756  139.5420  167.5013 C.ar    1  UNL1        0.0188
     31 C         139.7955  140.6411  167.4639 C.ar    1  UNL1        0.0794
     32 C         139.6766  142.6915  170.7419 C.3     1  UNL1        0.0263
     33 C         140.0456  141.4395  170.0026 C.3     1  UNL1        0.1053
     34 C         140.0773  140.1246  170.7237 C.3     1  UNL1        0.0263
@<TRIPOS>BOND
     1    32    33    1
     2    33    34    1
     3    33    23    1
     4    23    24   ar
     5    24    25   ar
     6    25    19    1
     7    19    20    2
     8    19    21   am
     9    21     1    1
    10     1     2    1
    11     2     3    1
    12     3     4    1
    13     4     5    1
    14     5     8    1
    15     8     9    1
    16     9    10    1
    17    10    11   ar
    18    11    12   ar
    19    12    13   ar
    20    13    14    1
    21    13    15   ar
    22    15    16   ar
    23     5     6    1
    24     6     7    1
    25    25    26   ar
    26    26    27   ar
    27    27    28   ar
    28    28    29   ar
    29    29    30   ar
    30    30    31   ar
    31    31    23   ar
    32     7     2    1
    33    31    26   ar
    34    16    10   ar
    35    21    22    1
    36    14    17    1
    37    14    18    1
@<TRIPOS>MOLECULE
*****
 34 37 0 0 0
SMALL
GASTEIGER

@<TRIPOS>ATOM
      1 C         141.9033  145.1767  163.0011 C.3     1  UNL1        0.0898
      2 C         141.5046  144.1500  164.0194 C.3     1  UNL1        0.0224
      3 C         140.1885  144.2692  164.7291 C.3     1  UNL1        0.0191
      4 C         139.7898  143.2425  165.7474 C.3     1  UNL1        0.0722
      5 N         140.7072  142.0965  166.0560 N.3     1  UNL1       -0.2724
      6 C         142.0233  141.9773  165.3462 C.3     1  UNL1        0.0722
      7 C         142.4220  143.0040  164.3279 C.3     1  UNL1        0.0191
      8 C         140.3084  141.0698  167.0742 C.3     1  UNL1        0.0768
      9 C         139.2127  140.0932  166.7653 C.3     1  UNL1        0.0437
     10 C         139.0967  139.5066  165.3896 C.ar    1  UNL1       -0.0207
     11 C         139.8313  138.2442  165.0482 C.ar    1  UNL1       -0.0030
     12 C         139.7153  137.6576  163.6725 C.ar    1  UNL1        0.0138
     13 C         138.8647  138.3335  162.6383 C.ar    1  UNL1        0.0415
     14 N         138.7487  137.7470  161.2625 N.pl3   1  UNL1       -0.3570
     15 C         138.1301  139.5960  162.9798 C.ar    1  UNL1        0.0138
     16 C         138.2461  140.1826  164.3554 C.ar    1  UNL1       -0.0030
     17 H         139.2308  136.9184  161.0384 H       1  UNL1        0.1424
     18 H         138.1904  138.1906  160.5837 H       1  UNL1        0.1424
     19 C         140.4064  145.2909  160.8806 C.2     1  UNL1        0.2654
     20 O         139.3229  145.9504  161.6811 O.2     1  UNL1       -0.2684
     21 N         141.6967  144.9040  161.5406 N.am    1  UNL1       -0.2996
     22 H         142.4080  144.4712  161.0153 H       1  UNL1        0.1498
     23 N         140.1446  145.2816  157.0081 N.ar    1  UNL1       -0.2527
     24 N         140.5036  145.9630  158.2953 N.ar    1  UNL1       -0.1647
     25 C         140.1998  145.0183  159.4201 C.ar    1  UNL1        0.1554
     26 C         139.6532  143.7531  158.8282 C.ar    1  UNL1        0.0411
     27 C         139.1821  142.4739  159.4539 C.ar    1  UNL1        0.0032
     28 C         138.6769  141.3574  158.5890 C.ar    1  UNL1        0.0001
     29 C         138.6428  141.5202  157.0982 C.ar    1  UNL1        0.0015
     30 C         139.1139  142.7994  156.4724 C.ar    1  UNL1        0.0188
     31 C         139.6191  143.9158  157.3374 C.ar    1  UNL1        0.0794
     32 C         139.2899  146.8700  155.1381 C.3     1  UNL1        0.0263
     33 C         140.2864  145.8638  155.6330 C.3     1  UNL1        0.1053
     34 C         141.4244  145.4399  154.7527 C.3     1  UNL1        0.0263
@<TRIPOS>BOND
     1    32    33    1
     2    33    34    1
     3    33    23    1
     4    23    24   ar
     5    24    25   ar
     6    25    19    1
     7    19    20    2
     8    19    21   am
     9    21     1    1
    10     1     2    1
    11     2     3    1
    12     3     4    1
    13     4     5    1
    14     5     8    1
    15     8     9    1
    16     9    10    1
    17    10    11   ar
    18    11    12   ar
    19    12    13   ar
    20    13    14    1
    21    13    15   ar
    22    15    16   ar
    23     5     6    1
    24     6     7    1
    25    25    26   ar
    26    26    27   ar
    27    27    28   ar
    28    28    29   ar
    29    29    30   ar
    30    30    31   ar
    31    31    23   ar
    32     7     2    1
    33    31    26   ar
    34    16    10   ar
    35    21    22    1
    36    14    17    1
    37    14    18    1
@<TRIPOS>MOLECULE
*****
 34 37 0 0 0
SMALL
GASTEIGER

@<TRIPOS>ATOM
      1 C         142.4575  145.1763  163.1027 C.3     1  UNL1        0.0898
      2 C         142.4705  144.0806  164.1270 C.3     1  UNL1        0.0224
      3 C         141.1929  143.3912  164.5041 C.3     1  UNL1        0.0191
      4 C         141.2060  142.2955  165.5285 C.3     1  UNL1        0.0722
      5 N         142.4967  141.8892  166.1758 N.3     1  UNL1       -0.2724
      6 C         143.7744  142.5787  165.7987 C.3     1  UNL1        0.0722
      7 C         143.7613  143.6744  164.7743 C.3     1  UNL1        0.0191
      8 C         142.5097  140.7936  167.2001 C.3     1  UNL1        0.0768
      9 C         143.0035  139.4264  166.8299 C.3     1  UNL1        0.0437
     10 C         142.8730  138.9390  165.4173 C.ar    1  UNL1       -0.0207
     11 C         141.6639  138.1536  165.0036 C.ar    1  UNL1       -0.0030
     12 C         141.5334  137.6661  163.5911 C.ar    1  UNL1        0.0138
     13 C         142.6120  137.9642  162.5922 C.ar    1  UNL1        0.0415
     14 N         142.4816  137.4767  161.1795 N.pl3   1  UNL1       -0.3570
     15 C         143.8211  138.7496  163.0059 C.ar    1  UNL1        0.0138
     16 C         143.9516  139.2371  164.4184 C.ar    1  UNL1       -0.0030
     17 H         141.6880  136.9612  160.9080 H       1  UNL1        0.1424
     18 H         143.1895  137.6723  160.5240 H       1  UNL1        0.1424
     19 C         140.7180  145.2450  161.1741 C.2     1  UNL1        0.2654
     20 O         139.7365  145.9228  162.0836 O.2     1  UNL1       -0.2684
     21 N         142.0786  144.8718  161.6836 N.am    1  UNL1       -0.2996
     22 H         142.7228  144.4269  161.0867 H       1  UNL1        0.1498
     23 N         140.0210  145.1399  157.3572 N.ar    1  UNL1       -0.2527
     24 N         140.5454  145.8425  158.5744 N.ar    1  UNL1       -0.1647
     25 C         140.3390  144.9405  159.7550 C.ar    1  UNL1        0.1554
     26 C         139.6871  143.6806  159.2675 C.ar    1  UNL1        0.0411
     27 C         139.2471  142.4370  159.9816 C.ar    1  UNL1        0.0032
     28 C         138.6106  141.3167  159.2137 C.ar    1  UNL1        0.0001
     29 C         138.4141  141.4400  157.7318 C.ar    1  UNL1        0.0015
     30 C         138.8541  142.6835  157.0177 C.ar    1  UNL1        0.0188
     31 C         139.4906  143.8038  157.7856 C.ar    1  UNL1        0.0794
     32 C         138.9139  146.5721  155.4935 C.3     1  UNL1        0.0263
     33 C         140.0262  145.6789  155.9574 C.3     1  UNL1        0.1053
     34 C         141.1435  145.3248  155.0215 C.3     1  UNL1        0.0263
@<TRIPOS>BOND
     1    32    33    1
     2    33    34    1
     3    33    23    1
     4    23    24   ar
     5    24    25   ar
     6    25    19    1
     7    19    20    2
     8    19    21   am
     9    21     1    1
    10     1     2    1
    11     2     3    1
    12     3     4    1
    13     4     5    1
    14     5     8    1
    15     8     9    1
    16     9    10    1
    17    10    11   ar
    18    11    12   ar
    19    12    13   ar
    20    13    14    1
    21    13    15   ar
    22    15    16   ar
    23     5     6    1
    24     6     7    1
    25    25    26   ar
    26    26    27   ar
    27    27    28   ar
    28    28    29   ar
    29    29    30   ar
    30    30    31   ar
    31    31    23   ar
    32     7     2    1
    33    31    26   ar
    34    16    10   ar
    35    21    22    1
    36    14    17    1
    37    14    18    1
