@<TRIPOS>MOLECULE
*****
 34 37 0 0 0
SMALL
GASTEIGER

@<TRIPOS>ATOM
      1 C         141.0755  139.5539  160.5432 C.ar    1  UNL1        0.0505
      2 C         139.9103  138.6949  160.1503 C.ar    1  UNL1        0.0170
      3 C         139.0802  138.0280  161.2069 C.ar    1  UNL1        0.0307
      4 C         139.4155  138.2201  162.6563 C.ar    1  UNL1        0.1401
      5 F         138.5854  137.5532  163.7128 F       1  UNL1       -0.2044
      6 C         140.5807  139.0791  163.0491 C.ar    1  UNL1        0.0523
      7 C         141.4107  139.7460  161.9926 C.ar    1  UNL1        0.0167
      8 C         140.9159  139.2711  164.4986 C.3     1  UNL1        0.2179
      9 C         141.6344  137.9812  164.2337 C.3     1  UNL1        0.0602
     10 C         141.5006  139.0151  165.8560 C.3     1  UNL1        0.1808
     11 N         141.2504  139.9823  166.9749 N.ar    1  UNL1       -0.2384
     12 N         141.6921  139.9948  168.4083 N.ar    1  UNL1       -0.1584
     13 C         141.1302  141.2257  169.0557 C.ar    1  UNL1        0.1704
     14 C         140.3412  141.9739  168.0224 C.ar    1  UNL1        0.0576
     15 C         140.4155  141.2054  166.7364 C.ar    1  UNL1        0.1615
     16 C         139.8308  141.4613  165.3790 C.2     1  UNL1        0.3305
     17 N         138.9958  142.6845  165.1404 N.pl3   1  UNL1       -0.2452
     18 N         140.0810  140.4942  164.2601 N.2     1  UNL1       -0.0666
     19 H         138.8316  143.3193  165.8748 H       1  UNL1        0.2885
     20 H         138.6121  142.8524  164.2495 H       1  UNL1        0.2885
     21 C         141.3233  141.6364  170.4854 C.1     1  UNL1        0.1216
     22 N         141.5165  142.0470  171.9151 N.1     1  UNL1       -0.1892
     23 C         143.2751  139.6985  159.1680 C.2     1  UNL1        0.2688
     24 O         143.8146  138.5092  159.9058 O.2     1  UNL1       -0.2681
     25 N         141.9056  140.2209  159.4867 N.am    1  UNL1       -0.2791
     26 H         141.5515  141.0015  159.0025 H       1  UNL1        0.1552
     27 C         145.7652  141.6994  155.9985 C.ar    1  UNL1        0.2449
     28 C         145.3559  140.2655  155.8365 C.ar    1  UNL1        0.1565
     29 N         144.5258  139.5985  156.8930 N.ar    1  UNL1       -0.2328
     30 C         144.1052  140.3655  158.1115 C.ar    1  UNL1        0.1541
     31 C         144.5145  141.7995  158.2736 C.ar    1  UNL1        0.1258
     32 N         145.3445  142.4664  157.2171 N.ar    1  UNL1       -0.2071
     33 C         148.0917  142.2809  154.9989 C.3     1  UNL1        0.2543
     34 O         146.5953  142.3664  154.9420 O.3     1  UNL1       -0.4551
@<TRIPOS>BOND
     1    33    34    1
     2    34    27    1
     3    27    28   ar
     4    28    29   ar
     5    29    30   ar
     6    30    23    1
     7    23    24    2
     8    23    25   am
     9    25     1    1
    10     1     2   ar
    11     2     3   ar
    12     3     4   ar
    13     4     5    1
    14     4     6   ar
    15     6     8    1
    16     8     9    1
    17     8    10    1
    18    10    11    1
    19    11    12   ar
    20    12    13   ar
    21    13    21    1
    22    21    22    3
    23    13    14   ar
    24    14    15   ar
    25    15    16    1
    26    16    17    1
    27    16    18    2
    28     6     7   ar
    29    30    31   ar
    30    31    32   ar
    31    32    27   ar
    32     7     1   ar
    33    18     8    1
    34    15    11   ar
    35    25    26    1
    36    17    19    1
    37    17    20    1
@<TRIPOS>MOLECULE
*****
 34 37 0 0 0
SMALL
GASTEIGER

@<TRIPOS>ATOM
      1 C         139.2251  146.6337  155.5658 C.ar    1  UNL1        0.0505
      2 C         138.1934  145.6508  155.0973 C.ar    1  UNL1        0.0170
      3 C         138.0997  144.2984  155.7395 C.ar    1  UNL1        0.0307
      4 C         139.0378  143.9290  156.8502 C.ar    1  UNL1        0.1401
      5 F         138.9441  142.5767  157.4924 F       1  UNL1       -0.2044
      6 C         140.0694  144.9119  157.3186 C.ar    1  UNL1        0.0523
      7 C         140.1631  146.2642  156.6765 C.ar    1  UNL1        0.0167
      8 C         141.0075  144.5424  158.4293 C.3     1  UNL1        0.2179
      9 C         141.6849  143.8595  157.2782 C.3     1  UNL1        0.0602
     10 C         142.1809  143.9357  159.1402 C.3     1  UNL1        0.1808
     11 N         142.3510  144.1403  160.6164 N.ar    1  UNL1       -0.2384
     12 N         143.3987  143.6688  161.5807 N.ar    1  UNL1       -0.1584
     13 C         143.0431  144.1886  162.9421 C.ar    1  UNL1        0.1704
     14 C         141.7756  144.9813  162.8191 C.ar    1  UNL1        0.0576
     15 C         141.3479  144.9515  161.3817 C.ar    1  UNL1        0.1615
     16 C         140.1746  145.5581  160.6708 C.2     1  UNL1        0.3305
     17 N         139.1715  146.3693  161.4361 N.pl3   1  UNL1       -0.2452
     18 N         140.0045  145.3536  159.1946 N.2     1  UNL1       -0.0666
     19 H         139.2832  146.5036  162.4050 H       1  UNL1        0.2885
     20 H         138.4014  146.7675  160.9695 H       1  UNL1        0.2885
     21 C         143.8187  143.9564  164.2048 C.1     1  UNL1        0.1216
     22 N         144.5944  143.7243  165.4676 N.1     1  UNL1       -0.1892
     23 C         138.9044  149.2091  155.6868 C.2     1  UNL1        0.2688
     24 O         138.3964  149.0798  157.0922 O.2     1  UNL1       -0.2681
     25 N         139.3188  147.9860  154.9236 N.am    1  UNL1       -0.2791
     26 H         139.6522  148.0709  154.0012 H       1  UNL1        0.1552
     27 C         139.1856  153.2661  153.7603 C.ar    1  UNL1        0.2449
     28 C         139.3662  152.0285  152.9322 C.ar    1  UNL1        0.1565
     29 N         139.2725  150.6761  153.5745 N.ar    1  UNL1       -0.2328
     30 C         138.9982  150.5615  155.0446 C.ar    1  UNL1        0.1541
     31 C         138.8176  151.7991  155.8727 C.ar    1  UNL1        0.1258
     32 N         138.9113  153.1513  155.2305 N.ar    1  UNL1       -0.2071
     33 C         140.2606  155.6281  153.6356 C.3     1  UNL1        0.2543
     34 O         139.2793  154.6185  153.1181 O.3     1  UNL1       -0.4551
@<TRIPOS>BOND
     1    33    34    1
     2    34    27    1
     3    27    28   ar
     4    28    29   ar
     5    29    30   ar
     6    30    23    1
     7    23    24    2
     8    23    25   am
     9    25     1    1
    10     1     2   ar
    11     2     3   ar
    12     3     4   ar
    13     4     5    1
    14     4     6   ar
    15     6     8    1
    16     8     9    1
    17     8    10    1
    18    10    11    1
    19    11    12   ar
    20    12    13   ar
    21    13    21    1
    22    21    22    3
    23    13    14   ar
    24    14    15   ar
    25    15    16    1
    26    16    17    1
    27    16    18    2
    28     6     7   ar
    29    30    31   ar
    30    31    32   ar
    31    32    27   ar
    32     7     1   ar
    33    18     8    1
    34    15    11   ar
    35    25    26    1
    36    17    19    1
    37    17    20    1
@<TRIPOS>MOLECULE
*****
 34 37 0 0 0
SMALL
GASTEIGER

@<TRIPOS>ATOM
      1 C         140.3550  144.2931  157.3498 C.ar    1  UNL1        0.0505
      2 C         139.1913  143.4103  157.0085 C.ar    1  UNL1        0.0170
      3 C         138.1596  143.8763  156.0244 C.ar    1  UNL1        0.0307
      4 C         138.2915  145.2252  155.3817 C.ar    1  UNL1        0.1401
      5 F         137.2598  145.6912  154.3976 F       1  UNL1       -0.2044
      6 C         139.4551  146.1080  155.7230 C.ar    1  UNL1        0.0523
      7 C         140.4868  145.6421  156.7070 C.ar    1  UNL1        0.0167
      8 C         139.5870  147.4569  155.0802 C.3     1  UNL1        0.2179
      9 C         140.2761  146.6098  154.0518 C.3     1  UNL1        0.0602
     10 C         139.9582  148.5116  154.0802 C.3     1  UNL1        0.1808
     11 N         139.5945  149.9449  154.3319 N.ar    1  UNL1       -0.2384
     12 N         139.8257  151.1940  153.5342 N.ar    1  UNL1       -0.1584
     13 C         139.2337  152.3446  154.2929 C.ar    1  UNL1        0.1704
     14 C         138.6366  151.8067  155.5594 C.ar    1  UNL1        0.0576
     15 C         138.8596  150.3235  155.5835 C.ar    1  UNL1        0.1615
     16 C         138.4884  149.2689  156.5835 C.2     1  UNL1        0.3305
     17 N         137.7535  149.6475  157.8351 N.pl3   1  UNL1       -0.2452
     18 N         138.8521  147.8356  156.3318 N.2     1  UNL1       -0.0666
     19 H         137.5148  150.5882  158.0003 H       1  UNL1        0.2885
     20 H         137.5099  148.9553  158.4914 H       1  UNL1        0.2885
     21 C         139.2380  153.7811  153.8609 C.1     1  UNL1        0.1216
     22 N         139.2423  155.2175  153.4289 N.1     1  UNL1       -0.1892
     23 C         141.3323  144.2979  159.7571 C.2     1  UNL1        0.2688
     24 O         140.2462  145.2346  160.1962 O.2     1  UNL1       -0.2681
     25 N         141.3867  143.8272  158.3339 N.am    1  UNL1       -0.2791
     26 H         142.0995  143.2124  158.0456 H       1  UNL1        0.1552
     27 C         144.4276  142.9000  162.7091 C.ar    1  UNL1        0.2449
     28 C         143.7890  144.2472  162.8734 C.ar    1  UNL1        0.1565
     29 N         142.7572  144.7132  161.8894 N.ar    1  UNL1       -0.2328
     30 C         142.3641  143.8319  160.7411 C.ar    1  UNL1        0.1541
     31 C         143.0027  142.4846  160.5767 C.ar    1  UNL1        0.1258
     32 N         144.0345  142.0187  161.5607 N.ar    1  UNL1       -0.2071
     33 C         145.6474  140.9672  163.9447 C.3     1  UNL1        0.2543
     34 O         145.4594  142.4340  163.6932 O.3     1  UNL1       -0.4551
@<TRIPOS>BOND
     1    33    34    1
     2    34    27    1
     3    27    28   ar
     4    28    29   ar
     5    29    30   ar
     6    30    23    1
     7    23    24    2
     8    23    25   am
     9    25     1    1
    10     1     2   ar
    11     2     3   ar
    12     3     4   ar
    13     4     5    1
    14     4     6   ar
    15     6     8    1
    16     8     9    1
    17     8    10    1
    18    10    11    1
    19    11    12   ar
    20    12    13   ar
    21    13    21    1
    22    21    22    3
    23    13    14   ar
    24    14    15   ar
    25    15    16    1
    26    16    17    1
    27    16    18    2
    28     6     7   ar
    29    30    31   ar
    30    31    32   ar
    31    32    27   ar
    32     7     1   ar
    33    18     8    1
    34    15    11   ar
    35    25    26    1
    36    17    19    1
    37    17    20    1
@<TRIPOS>MOLECULE
*****
 34 37 0 0 0
SMALL
GASTEIGER

@<TRIPOS>ATOM
      1 C         143.7025  139.9743  160.1500 C.ar    1  UNL1        0.0505
      2 C         144.1177  141.3447  159.7030 C.ar    1  UNL1        0.0170
      3 C         144.2367  142.4560  160.7035 C.ar    1  UNL1        0.0307
      4 C         143.9404  142.1968  162.1509 C.ar    1  UNL1        0.1401
      5 F         144.0593  143.3081  163.1514 F       1  UNL1       -0.2044
      6 C         143.5252  140.8266  162.5979 C.ar    1  UNL1        0.0523
      7 C         143.4062  139.7153  161.5975 C.ar    1  UNL1        0.0167
      8 C         143.2289  140.5675  164.0454 C.3     1  UNL1        0.2179
      9 C         144.6913  140.2346  164.0152 C.3     1  UNL1        0.0602
     10 C         143.4406  140.1929  165.4824 C.3     1  UNL1        0.1808
     11 N         142.2928  140.2411  166.4469 N.ar    1  UNL1       -0.2384
     12 N         142.1989  139.9312  167.9115 N.ar    1  UNL1       -0.1584
     13 C         140.7814  140.1626  168.3442 C.ar    1  UNL1        0.1704
     14 C         139.9993  140.6155  167.1470 C.ar    1  UNL1        0.0576
     15 C         140.9334  140.6640  165.9744 C.ar    1  UNL1        0.1615
     16 C         140.7218  141.0387  164.5374 C.2     1  UNL1        0.3305
     17 N         139.3624  141.4615  164.0650 N.pl3   1  UNL1       -0.2452
     18 N         141.8696  140.9904  163.5730 N.2     1  UNL1       -0.0666
     19 H         138.6091  141.4932  164.6980 H       1  UNL1        0.2885
     20 H         139.2235  141.7074  163.1218 H       1  UNL1        0.2885
     21 C         140.2409  139.9741  169.7307 C.1     1  UNL1        0.1216
     22 N         139.7004  139.7857  171.1172 N.1     1  UNL1       -0.1892
     23 C         142.2417  138.5036  158.5837 C.2     1  UNL1        0.2688
     24 O         141.0187  139.2555  159.0183 O.2     1  UNL1       -0.2681
     25 N         143.5836  138.8630  159.1496 N.am    1  UNL1       -0.2791
     26 H         144.3863  138.3695  158.8643 H       1  UNL1        0.1552
     27 C         141.8850  135.1697  155.5825 C.ar    1  UNL1        0.2449
     28 C         143.0645  135.2230  156.5076 C.ar    1  UNL1        0.1565
     29 N         143.1834  136.3343  157.5081 N.ar    1  UNL1       -0.2328
     30 C         142.1228  137.3923  157.5833 C.ar    1  UNL1        0.1541
     31 C         140.9432  137.3391  156.6581 C.ar    1  UNL1        0.1258
     32 N         140.8244  136.2277  155.6578 N.ar    1  UNL1       -0.2071
     33 C         141.3343  132.6923  155.0264 C.3     1  UNL1        0.2543
     34 O         141.7661  134.0583  154.5820 O.3     1  UNL1       -0.4551
@<TRIPOS>BOND
     1    33    34    1
     2    34    27    1
     3    27    28   ar
     4    28    29   ar
     5    29    30   ar
     6    30    23    1
     7    23    24    2
     8    23    25   am
     9    25     1    1
    10     1     2   ar
    11     2     3   ar
    12     3     4   ar
    13     4     5    1
    14     4     6   ar
    15     6     8    1
    16     8     9    1
    17     8    10    1
    18    10    11    1
    19    11    12   ar
    20    12    13   ar
    21    13    21    1
    22    21    22    3
    23    13    14   ar
    24    14    15   ar
    25    15    16    1
    26    16    17    1
    27    16    18    2
    28     6     7   ar
    29    30    31   ar
    30    31    32   ar
    31    32    27   ar
    32     7     1   ar
    33    18     8    1
    34    15    11   ar
    35    25    26    1
    36    17    19    1
    37    17    20    1
@<TRIPOS>MOLECULE
*****
 34 37 0 0 0
SMALL
GASTEIGER

@<TRIPOS>ATOM
      1 C         140.8479  142.0130  160.1540 C.ar    1  UNL1        0.0505
      2 C         139.4780  142.2111  159.5759 C.ar    1  UNL1        0.0170
      3 C         138.3251  142.5443  160.4758 C.ar    1  UNL1        0.0307
      4 C         138.5421  142.6793  161.9539 C.ar    1  UNL1        0.1401
      5 F         137.3892  143.0124  162.8538 F       1  UNL1       -0.2044
      6 C         139.9119  142.4812  162.5320 C.ar    1  UNL1        0.0523
      7 C         141.0648  142.1481  161.6322 C.ar    1  UNL1        0.0167
      8 C         140.1288  142.6162  164.0101 C.3     1  UNL1        0.2179
      9 C         140.5295  143.9904  163.5615 C.3     1  UNL1        0.0602
     10 C         140.4849  143.2285  165.3324 C.3     1  UNL1        0.1808
     11 N         140.3649  142.4198  166.5900 N.ar    1  UNL1       -0.2384
     12 N         140.6416  142.7511  168.0265 N.ar    1  UNL1       -0.1584
     13 C         140.3366  141.5348  168.8497 C.ar    1  UNL1        0.1704
     14 C         139.8714  140.4518  167.9219 C.ar    1  UNL1        0.0576
     15 C         139.8889  140.9988  166.5253 C.ar    1  UNL1        0.1615
     16 C         139.5328  140.3866  165.2031 C.2     1  UNL1        0.3305
     17 N         139.0568  138.9656  165.1384 N.pl3   1  UNL1       -0.2452
     18 N         139.6528  141.1953  163.9455 N.2     1  UNL1       -0.0666
     19 H         138.9780  138.4348  165.9638 H       1  UNL1        0.2885
     20 H         138.8231  138.5637  164.2706 H       1  UNL1        0.2885
     21 C         140.4729  141.4214  170.3392 C.1     1  UNL1        0.1216
     22 N         140.6092  141.3079  171.8287 N.1     1  UNL1       -0.1892
     23 C         142.8837  142.7735  158.7303 C.2     1  UNL1        0.2688
     24 O         142.6137  144.2003  159.1062 O.2     1  UNL1       -0.2681
     25 N         142.0008  141.6799  159.2542 N.am    1  UNL1       -0.2791
     26 H         142.1780  140.7435  159.0074 H       1  UNL1        0.1552
     27 C         146.3425  141.7740  156.0307 C.ar    1  UNL1        0.2449
     28 C         144.9452  141.4089  155.6257 C.ar    1  UNL1        0.1565
     29 N         143.7922  141.7421  156.5256 N.ar    1  UNL1       -0.2328
     30 C         144.0367  142.4403  157.8304 C.ar    1  UNL1        0.1541
     31 C         145.4341  142.8054  158.2355 C.ar    1  UNL1        0.1258
     32 N         146.5869  142.4722  157.3356 N.ar    1  UNL1       -0.2071
     33 C         148.8997  141.7276  155.5736 C.3     1  UNL1        0.2543
     34 O         147.4955  141.4408  155.1309 O.3     1  UNL1       -0.4551
@<TRIPOS>BOND
     1    33    34    1
     2    34    27    1
     3    27    28   ar
     4    28    29   ar
     5    29    30   ar
     6    30    23    1
     7    23    24    2
     8    23    25   am
     9    25     1    1
    10     1     2   ar
    11     2     3   ar
    12     3     4   ar
    13     4     5    1
    14     4     6   ar
    15     6     8    1
    16     8     9    1
    17     8    10    1
    18    10    11    1
    19    11    12   ar
    20    12    13   ar
    21    13    21    1
    22    21    22    3
    23    13    14   ar
    24    14    15   ar
    25    15    16    1
    26    16    17    1
    27    16    18    2
    28     6     7   ar
    29    30    31   ar
    30    31    32   ar
    31    32    27   ar
    32     7     1   ar
    33    18     8    1
    34    15    11   ar
    35    25    26    1
    36    17    19    1
    37    17    20    1
@<TRIPOS>MOLECULE
*****
 34 37 0 0 0
SMALL
GASTEIGER

@<TRIPOS>ATOM
      1 C         141.0750  141.9401  169.1322 C.ar    1  UNL1        0.0505
      2 C         140.0616  141.3302  170.0548 C.ar    1  UNL1        0.0170
      3 C         139.0815  140.3225  169.5315 C.ar    1  UNL1        0.0307
      4 C         139.1148  139.9246  168.0856 C.ar    1  UNL1        0.1401
      5 F         138.1346  138.9169  167.5623 F       1  UNL1       -0.2044
      6 C         140.1281  140.5344  167.1631 C.ar    1  UNL1        0.0523
      7 C         141.1082  141.5421  167.6863 C.ar    1  UNL1        0.0167
      8 C         140.1613  140.1365  165.7171 C.3     1  UNL1        0.2179
      9 C         141.2623  139.2690  166.2514 C.3     1  UNL1        0.0602
     10 C         140.5769  139.4372  164.4568 C.3     1  UNL1        0.1808
     11 N         139.8799  139.7437  163.1644 N.ar    1  UNL1       -0.2384
     12 N         140.0693  139.2172  161.7726 N.ar    1  UNL1       -0.1584
     13 C         139.0737  139.8975  160.8804 C.ar    1  UNL1        0.1704
     14 C         138.2691  140.8444  161.7207 C.ar    1  UNL1        0.0576
     15 C         138.7674  140.7493  163.1323 C.ar    1  UNL1        0.1615
     16 C         138.3518  141.4485  164.3926 C.2     1  UNL1        0.3305
     17 N         137.2393  142.4541  164.3605 N.pl3   1  UNL1       -0.2452
     18 N         139.0488  141.1421  165.6850 N.2     1  UNL1       -0.0666
     19 H         136.7819  142.6552  163.5123 H       1  UNL1        0.2885
     20 H         136.9666  142.9130  165.1878 H       1  UNL1        0.2885
     21 C         138.9113  139.6708  159.4065 C.1     1  UNL1        0.1216
     22 N         138.7488  139.4440  157.9327 N.1     1  UNL1       -0.1892
     23 C         143.4120  142.5050  170.1168 C.2     1  UNL1        0.2688
     24 O         143.7888  141.0544  170.0549 O.2     1  UNL1       -0.2681
     25 N         142.0551  142.9478  169.6554 N.am    1  UNL1       -0.2791
     26 H         141.8079  143.8999  169.6960 H       1  UNL1        0.1552
     27 C         146.3524  145.5283  171.6864 C.ar    1  UNL1        0.2449
     28 C         144.9003  145.6374  172.0463 C.ar    1  UNL1        0.1565
     29 N         143.9202  144.6296  171.5231 N.ar    1  UNL1       -0.2328
     30 C         144.3922  143.5128  170.6400 C.ar    1  UNL1        0.1541
     31 C         145.8443  143.4036  170.2801 C.ar    1  UNL1        0.1258
     32 N         146.8243  144.4114  170.8033 N.ar    1  UNL1       -0.2071
     33 C         147.3549  146.8716  173.6715 C.3     1  UNL1        0.2543
     34 O         147.3325  146.5361  172.2096 O.3     1  UNL1       -0.4551
@<TRIPOS>BOND
     1    33    34    1
     2    34    27    1
     3    27    28   ar
     4    28    29   ar
     5    29    30   ar
     6    30    23    1
     7    23    24    2
     8    23    25   am
     9    25     1    1
    10     1     2   ar
    11     2     3   ar
    12     3     4   ar
    13     4     5    1
    14     4     6   ar
    15     6     8    1
    16     8     9    1
    17     8    10    1
    18    10    11    1
    19    11    12   ar
    20    12    13   ar
    21    13    21    1
    22    21    22    3
    23    13    14   ar
    24    14    15   ar
    25    15    16    1
    26    16    17    1
    27    16    18    2
    28     6     7   ar
    29    30    31   ar
    30    31    32   ar
    31    32    27   ar
    32     7     1   ar
    33    18     8    1
    34    15    11   ar
    35    25    26    1
    36    17    19    1
    37    17    20    1
@<TRIPOS>MOLECULE
*****
 34 37 0 0 0
SMALL
GASTEIGER

@<TRIPOS>ATOM
      1 C         139.7633  140.4234  160.3605 C.ar    1  UNL1        0.0505
      2 C         139.3656  139.0437  159.9267 C.ar    1  UNL1        0.0170
      3 C         139.0106  138.0081  160.9521 C.ar    1  UNL1        0.0307
      4 C         139.0532  138.3523  162.4115 C.ar    1  UNL1        0.1401
      5 F         138.6982  137.3168  163.4370 F       1  UNL1       -0.2044
      6 C         139.4509  139.7320  162.8453 C.ar    1  UNL1        0.0523
      7 C         139.8059  140.7675  161.8199 C.ar    1  UNL1        0.0167
      8 C         139.4935  140.0761  164.3048 C.3     1  UNL1        0.2179
      9 C         138.0999  140.5211  163.9728 C.3     1  UNL1        0.0602
     10 C         139.0521  140.5748  165.6489 C.3     1  UNL1        0.1808
     11 N         139.9894  140.5090  166.8181 N.ar    1  UNL1       -0.2384
     12 N         139.8356  140.9211  168.2521 N.ar    1  UNL1       -0.1584
     13 C         141.1194  140.6114  168.9635 C.ar    1  UNL1        0.1704
     14 C         142.0665  140.0078  167.9692 C.ar    1  UNL1        0.0576
     15 C         141.3681  139.9446  166.6432 C.ar    1  UNL1        0.1615
     16 C         141.8095  139.4459  165.2991 C.2     1  UNL1        0.3305
     17 N         143.1882  138.8815  165.1243 N.pl3   1  UNL1       -0.2452
     18 N         140.8721  139.5117  164.1299 N.2     1  UNL1       -0.0666
     19 H         143.8034  138.8383  165.8916 H       1  UNL1        0.2885
     20 H         143.4779  138.5542  164.2421 H       1  UNL1        0.2885
     21 C         141.4057  140.8613  170.4146 C.1     1  UNL1        0.1216
     22 N         141.6921  141.1112  171.8657 N.1     1  UNL1       -0.1892
     23 C         139.2734  142.6896  159.1882 C.2     1  UNL1        0.2688
     24 O         138.0734  142.8847  160.0667 O.2     1  UNL1       -0.2681
     25 N         140.1183  141.4590  159.3351 N.am    1  UNL1       -0.2791
     26 H         140.9060  141.3309  158.7585 H       1  UNL1        0.1552
     27 C         140.3387  145.7963  156.1119 C.ar    1  UNL1        0.2449
     28 C         140.5920  146.0630  157.5661 C.ar    1  UNL1        0.1565
     29 N         140.2369  145.0274  158.5915 N.ar    1  UNL1       -0.2328
     30 C         139.6285  143.7252  158.1627 C.ar    1  UNL1        0.1541
     31 C         139.3752  143.4584  156.7085 C.ar    1  UNL1        0.1258
     32 N         139.7303  144.4940  155.6832 N.ar    1  UNL1       -0.2071
     33 C         140.9799  146.4202  153.6727 C.3     1  UNL1        0.2543
     34 O         140.6938  146.8319  155.0864 O.3     1  UNL1       -0.4551
@<TRIPOS>BOND
     1    33    34    1
     2    34    27    1
     3    27    28   ar
     4    28    29   ar
     5    29    30   ar
     6    30    23    1
     7    23    24    2
     8    23    25   am
     9    25     1    1
    10     1     2   ar
    11     2     3   ar
    12     3     4   ar
    13     4     5    1
    14     4     6   ar
    15     6     8    1
    16     8     9    1
    17     8    10    1
    18    10    11    1
    19    11    12   ar
    20    12    13   ar
    21    13    21    1
    22    21    22    3
    23    13    14   ar
    24    14    15   ar
    25    15    16    1
    26    16    17    1
    27    16    18    2
    28     6     7   ar
    29    30    31   ar
    30    31    32   ar
    31    32    27   ar
    32     7     1   ar
    33    18     8    1
    34    15    11   ar
    35    25    26    1
    36    17    19    1
    37    17    20    1
@<TRIPOS>MOLECULE
*****
 34 37 0 0 0
SMALL
GASTEIGER

@<TRIPOS>ATOM
      1 C         141.5865  138.9923  160.6166 C.ar    1  UNL1        0.0505
      2 C         143.0208  138.8107  160.2165 C.ar    1  UNL1        0.0170
      3 C         144.0952  138.7948  161.2631 C.ar    1  UNL1        0.0307
      4 C         143.7353  138.9605  162.7099 C.ar    1  UNL1        0.1401
      5 F         144.8098  138.9445  163.7565 F       1  UNL1       -0.2044
      6 C         142.3012  139.1420  163.1100 C.ar    1  UNL1        0.0523
      7 C         141.2268  139.1580  162.0635 C.ar    1  UNL1        0.0167
      8 C         141.9415  139.3077  164.5568 C.3     1  UNL1        0.2179
      9 C         141.7450  137.8281  164.4073 C.3     1  UNL1        0.0602
     10 C         141.5135  138.9594  165.9517 C.3     1  UNL1        0.1808
     11 N         141.4069  140.0332  166.9936 N.ar    1  UNL1       -0.2384
     12 N         141.0141  139.9922  168.4406 N.ar    1  UNL1       -0.1584
     13 C         141.0927  141.3889  168.9820 C.ar    1  UNL1        0.1704
     14 C         141.5340  142.2931  167.8696 C.ar    1  UNL1        0.0576
     15 C         141.7283  141.4553  166.6406 C.ar    1  UNL1        0.1615
     16 C         142.1562  141.8035  165.2458 C.2     1  UNL1        0.3305
     17 N         142.4776  143.2255  164.8928 N.pl3   1  UNL1       -0.2452
     18 N         142.2628  140.7297  164.2039 N.2     1  UNL1       -0.0666
     19 H         142.4076  143.9303  165.5767 H       1  UNL1        0.2885
     20 H         142.7585  143.4540  163.9773 H       1  UNL1        0.2885
     21 C         140.7840  141.8078  170.3889 C.1     1  UNL1        0.1216
     22 N         140.4754  142.2268  171.7957 N.1     1  UNL1       -0.1892
     23 C         140.2329  140.2654  158.8009 C.2     1  UNL1        0.2688
     24 O         141.0281  141.5066  159.0782 O.2     1  UNL1       -0.2681
     25 N         140.5121  139.0083  159.5701 N.am    1  UNL1       -0.2791
     26 H         139.9902  138.1936  159.3880 H       1  UNL1        0.1552
     27 C         137.0095  140.3131  155.6613 C.ar    1  UNL1        0.2449
     28 C         138.4042  139.8977  155.2979 C.ar    1  UNL1        0.1565
     29 N         139.4787  139.8818  156.3445 N.ar    1  UNL1       -0.2328
     30 C         139.1584  140.2813  157.7543 C.ar    1  UNL1        0.1541
     31 C         137.7636  140.6967  158.1177 C.ar    1  UNL1        0.1258
     32 N         136.6892  140.7126  157.0712 N.ar    1  UNL1       -0.2071
     33 C         134.5045  140.1020  155.0049 C.3     1  UNL1        0.2543
     34 O         135.9350  140.3290  154.6147 O.3     1  UNL1       -0.4551
@<TRIPOS>BOND
     1    33    34    1
     2    34    27    1
     3    27    28   ar
     4    28    29   ar
     5    29    30   ar
     6    30    23    1
     7    23    24    2
     8    23    25   am
     9    25     1    1
    10     1     2   ar
    11     2     3   ar
    12     3     4   ar
    13     4     5    1
    14     4     6   ar
    15     6     8    1
    16     8     9    1
    17     8    10    1
    18    10    11    1
    19    11    12   ar
    20    12    13   ar
    21    13    21    1
    22    21    22    3
    23    13    14   ar
    24    14    15   ar
    25    15    16    1
    26    16    17    1
    27    16    18    2
    28     6     7   ar
    29    30    31   ar
    30    31    32   ar
    31    32    27   ar
    32     7     1   ar
    33    18     8    1
    34    15    11   ar
    35    25    26    1
    36    17    19    1
    37    17    20    1
@<TRIPOS>MOLECULE
*****
 34 37 0 0 0
SMALL
GASTEIGER

@<TRIPOS>ATOM
      1 C         142.3722  141.1863  160.4322 C.ar    1  UNL1        0.0505
      2 C         143.5221  140.2770  160.1148 C.ar    1  UNL1        0.0170
      3 C         144.1198  139.4198  161.1910 C.ar    1  UNL1        0.0307
      4 C         143.5674  139.4720  162.5846 C.ar    1  UNL1        0.1401
      5 F         144.1650  138.6148  163.6608 F       1  UNL1       -0.2044
      6 C         142.4175  140.3813  162.9020 C.ar    1  UNL1        0.0523
      7 C         141.8199  141.2384  161.8259 C.ar    1  UNL1        0.0167
      8 C         141.8652  140.4334  164.2957 C.3     1  UNL1        0.2179
      9 C         140.9600  139.3988  163.6953 C.3     1  UNL1        0.0602
     10 C         140.9984  140.1261  165.4809 C.3     1  UNL1        0.1808
     11 N         141.2287  140.8354  166.7824 N.ar    1  UNL1       -0.2384
     12 N         140.5403  140.7420  168.1118 N.ar    1  UNL1       -0.1584
     13 C         141.2118  141.7007  169.0498 C.ar    1  UNL1        0.1704
     14 C         142.3152  142.3867  168.3001 C.ar    1  UNL1        0.0576
     15 C         142.3257  141.8518  166.8987 C.ar    1  UNL1        0.1615
     16 C         143.1923  142.1590  165.7136 C.2     1  UNL1        0.3305
     17 N         144.2893  143.1755  165.8300 N.pl3   1  UNL1       -0.2452
     18 N         142.9620  141.4498  164.4121 N.2     1  UNL1       -0.0666
     19 H         144.4404  143.6410  166.6842 H       1  UNL1        0.2885
     20 H         144.8581  143.3771  165.0522 H       1  UNL1        0.2885
     21 C         140.8444  141.9329  170.4854 C.1     1  UNL1        0.1216
     22 N         140.4770  142.1650  171.9211 N.1     1  UNL1       -0.1892
     23 C         142.0854  143.5101  159.3062 C.2     1  UNL1        0.2688
     24 O         142.9939  144.1195  160.3324 O.2     1  UNL1       -0.2681
     25 N         141.7746  142.0435  159.3561 N.am    1  UNL1       -0.2791
     26 H         141.1783  141.6435  158.6826 H       1  UNL1        0.1552
     27 C         140.2923  146.0815  156.0778 C.ar    1  UNL1        0.2449
     28 C         141.2359  144.9730  155.7162 C.ar    1  UNL1        0.1565
     29 N         141.8336  144.1158  156.7924 N.ar    1  UNL1       -0.2328
     30 C         141.4877  144.3673  158.2300 C.ar    1  UNL1        0.1541
     31 C         140.5441  145.4758  158.5917 C.ar    1  UNL1        0.1258
     32 N         139.9465  146.3329  157.5156 N.ar    1  UNL1       -0.2071
     33 C         139.0237  148.2318  155.3589 C.3     1  UNL1        0.2543
     34 O         139.6947  146.9387  155.0016 O.3     1  UNL1       -0.4551
@<TRIPOS>BOND
     1    33    34    1
     2    34    27    1
     3    27    28   ar
     4    28    29   ar
     5    29    30   ar
     6    30    23    1
     7    23    24    2
     8    23    25   am
     9    25     1    1
    10     1     2   ar
    11     2     3   ar
    12     3     4   ar
    13     4     5    1
    14     4     6   ar
    15     6     8    1
    16     8     9    1
    17     8    10    1
    18    10    11    1
    19    11    12   ar
    20    12    13   ar
    21    13    21    1
    22    21    22    3
    23    13    14   ar
    24    14    15   ar
    25    15    16    1
    26    16    17    1
    27    16    18    2
    28     6     7   ar
    29    30    31   ar
    30    31    32   ar
    31    32    27   ar
    32     7     1   ar
    33    18     8    1
    34    15    11   ar
    35    25    26    1
    36    17    19    1
    37    17    20    1
