@<TRIPOS>MOLECULE
*****
 34 38 0 0 0
SMALL
GASTEIGER

@<TRIPOS>ATOM
      1 N         140.3359  140.1344  160.0868 N.pl3   1  UNL1       -0.2464
      2 C         140.7282  139.9620  161.5243 C.2     1  UNL1        0.3157
      3 N         141.8465  140.6753  162.2247 N.2     1  UNL1       -0.0614
      4 C         141.8804  140.2002  163.6471 C.3     1  UNL1        0.2309
      5 C         140.7831  139.1932  163.8257 C.ar    1  UNL1        0.0390
      6 C         140.3403  138.3913  165.0135 C.ar    1  UNL1        0.0008
      7 C         139.1855  137.4422  164.8894 C.ar    1  UNL1        0.0021
      8 C         138.4733  137.2950  163.5774 C.ar    1  UNL1        0.0299
      9 C         138.9161  138.0969  162.3896 C.ar    1  UNL1        0.1470
     10 F         138.2039  137.9497  161.0777 F       1  UNL1       -0.2039
     11 C         140.0709  139.0460  162.5138 C.ar    1  UNL1        0.1094
     12 H         140.8309  140.7633  159.5135 H       1  UNL1        0.2884
     13 H         139.5835  139.6186  159.7166 H       1  UNL1        0.2884
     14 C         142.1558  139.9235  165.0953 C.ar    1  UNL1        0.0297
     15 C         143.0907  138.8162  165.4828 C.ar    1  UNL1        0.0004
     16 C         143.3660  138.5395  166.9311 C.ar    1  UNL1       -0.0002
     17 C         142.7066  139.3700  167.9920 C.ar    1  UNL1        0.0001
     18 C         141.7717  140.4772  167.6046 C.ar    1  UNL1        0.0028
     19 C         141.4963  140.7540  166.1562 C.ar    1  UNL1        0.0005
     20 C         141.1122  141.3078  168.6653 C.ar    1  UNL1        0.0384
     21 C         139.8442  140.8318  169.3101 C.ar    1  UNL1        0.1022
     22 N         139.1846  141.6622  170.3708 N.ar    1  UNL1       -0.2224
     23 C         139.7931  142.9687  170.7869 C.ar    1  UNL1        0.1989
     24 N         141.0611  143.4446  170.1422 N.ar    1  UNL1       -0.2224
     25 C         141.7207  142.6141  169.0814 C.ar    1  UNL1        0.1022
     26 C         143.0353  141.1493  163.7712 C.ar    1  UNL1        0.0326
     27 C         144.4415  140.6357  163.6781 C.ar    1  UNL1        0.0210
     28 C         145.5964  141.5848  163.8022 C.ar    1  UNL1        0.0985
     29 N         145.3450  143.0476  164.0194 N.ar    1  UNL1       -0.2426
     30 C         143.9388  143.5612  164.1124 C.ar    1  UNL1        0.1248
     31 C         142.7840  142.6121  163.9883 C.ar    1  UNL1        0.0207
     32 C         143.6874  145.0240  164.3296 C.3     1  UNL1        0.3581
     33 F         144.5917  145.8152  165.2274 F       1  UNL1       -0.1915
     34 F         142.5317  145.6955  163.6489 F       1  UNL1       -0.1915
@<TRIPOS>BOND
     1     1     2    1
     2     2     3    2
     3     3     4    1
     4     4    14    1
     5    14    15   ar
     6    15    16   ar
     7    16    17   ar
     8    17    18   ar
     9    18    20    1
    10    20    21   ar
    11    21    22   ar
    12    22    23   ar
    13    23    24   ar
    14    24    25   ar
    15    18    19   ar
    16     4    26    1
    17    26    27   ar
    18    27    28   ar
    19    28    29   ar
    20    29    30   ar
    21    30    32    1
    22    32    33    1
    23    32    34    1
    24    30    31   ar
    25     4     5    1
    26     5     6   ar
    27     6     7   ar
    28     7     8   ar
    29     8     9   ar
    30     9    10    1
    31     9    11   ar
    32    11     2    1
    33    19    14   ar
    34    31    26   ar
    35    11     5   ar
    36    25    20   ar
    37     1    12    1
    38     1    13    1
@<TRIPOS>MOLECULE
*****
 34 38 0 0 0
SMALL
GASTEIGER

@<TRIPOS>ATOM
      1 N         138.1804  142.9030  160.1866 N.pl3   1  UNL1       -0.2464
      2 C         138.9824  142.6538  161.4294 C.2     1  UNL1        0.3157
      3 N         139.0302  141.3710  162.2055 N.2     1  UNL1       -0.0614
      4 C         139.9548  141.5681  163.3701 C.3     1  UNL1        0.2309
      5 C         140.4783  142.9726  163.3139 C.ar    1  UNL1        0.0390
      6 C         141.4247  143.7272  164.1998 C.ar    1  UNL1        0.0008
      7 C         141.7700  145.1528  163.8864 C.ar    1  UNL1        0.0021
      8 C         141.1691  145.8238  162.6870 C.ar    1  UNL1        0.0299
      9 C         140.2228  145.0692  161.8010 C.ar    1  UNL1        0.1470
     10 F         139.6218  145.7402  160.6016 F       1  UNL1       -0.2039
     11 C         139.8774  143.6436  162.1144 C.ar    1  UNL1        0.1094
     12 H         137.6196  142.1864  159.8107 H       1  UNL1        0.2884
     13 H         138.2149  143.7831  159.7467 H       1  UNL1        0.2884
     14 C         140.8071  141.4671  164.6002 C.ar    1  UNL1        0.0297
     15 C         142.2227  140.9823  164.4942 C.ar    1  UNL1        0.0004
     16 C         143.0750  140.8813  165.7244 C.ar    1  UNL1       -0.0002
     17 C         142.5118  141.2651  167.0606 C.ar    1  UNL1        0.0001
     18 C         141.0963  141.7498  167.1667 C.ar    1  UNL1        0.0028
     19 C         140.2439  141.8509  165.9365 C.ar    1  UNL1        0.0005
     20 C         140.5330  142.1337  168.5029 C.ar    1  UNL1        0.0384
     21 C         140.6261  143.5541  168.9760 C.ar    1  UNL1        0.1022
     22 N         140.0628  143.9380  170.3121 N.ar    1  UNL1       -0.2224
     23 C         139.4065  142.9014  171.1752 C.ar    1  UNL1        0.1989
     24 N         139.3135  141.4811  170.7021 N.ar    1  UNL1       -0.2224
     25 C         139.8768  141.0972  169.3659 C.ar    1  UNL1        0.1022
     26 C         139.6094  140.1424  163.6835 C.ar    1  UNL1        0.0326
     27 C         139.9428  139.0570  162.7034 C.ar    1  UNL1        0.0210
     28 C         139.5974  137.6314  163.0168 C.ar    1  UNL1        0.0985
     29 N         138.9185  137.2912  164.3104 N.ar    1  UNL1       -0.2426
     30 C         138.5851  138.3765  165.2905 C.ar    1  UNL1        0.1248
     31 C         138.9305  139.8021  164.9771 C.ar    1  UNL1        0.0207
     32 C         137.9062  138.0363  166.5841 C.3     1  UNL1        0.3581
     33 F         137.3864  136.6485  166.8160 F       1  UNL1       -0.1915
     34 F         137.7470  139.0839  167.6458 F       1  UNL1       -0.1915
@<TRIPOS>BOND
     1     1     2    1
     2     2     3    2
     3     3     4    1
     4     4    14    1
     5    14    15   ar
     6    15    16   ar
     7    16    17   ar
     8    17    18   ar
     9    18    20    1
    10    20    21   ar
    11    21    22   ar
    12    22    23   ar
    13    23    24   ar
    14    24    25   ar
    15    18    19   ar
    16     4    26    1
    17    26    27   ar
    18    27    28   ar
    19    28    29   ar
    20    29    30   ar
    21    30    32    1
    22    32    33    1
    23    32    34    1
    24    30    31   ar
    25     4     5    1
    26     5     6   ar
    27     6     7   ar
    28     7     8   ar
    29     8     9   ar
    30     9    10    1
    31     9    11   ar
    32    11     2    1
    33    19    14   ar
    34    31    26   ar
    35    11     5   ar
    36    25    20   ar
    37     1    12    1
    38     1    13    1
@<TRIPOS>MOLECULE
*****
 34 38 0 0 0
SMALL
GASTEIGER

@<TRIPOS>ATOM
      1 N         137.8761  139.7984  170.2458 N.pl3   1  UNL1       -0.2464
      2 C         139.0193  139.8785  169.2779 C.2     1  UNL1        0.3157
      3 N         138.9491  139.6010  167.8055 N.2     1  UNL1       -0.0614
      4 C         140.3198  139.8012  167.2302 C.3     1  UNL1        0.2309
      5 C         141.2372  140.2025  168.3471 C.ar    1  UNL1        0.0390
      6 C         142.7006  140.5306  168.3752 C.ar    1  UNL1        0.0008
      7 C         143.3602  140.9065  169.6688 C.ar    1  UNL1        0.0021
      8 C         142.5564  140.9543  170.9344 C.ar    1  UNL1        0.0299
      9 C         141.0931  140.6262  170.9063 C.ar    1  UNL1        0.1470
     10 F         140.2893  140.6739  172.1719 F       1  UNL1       -0.2039
     11 C         140.4335  140.2503  169.6126 C.ar    1  UNL1        0.1094
     12 H         136.9795  139.5439  169.9286 H       1  UNL1        0.2884
     13 H         138.0224  140.0002  171.1982 H       1  UNL1        0.2884
     14 C         141.5526  139.9229  166.3845 C.ar    1  UNL1        0.0297
     15 C         142.4745  138.7497  166.2292 C.ar    1  UNL1        0.0004
     16 C         143.7073  138.8714  165.3834 C.ar    1  UNL1       -0.0002
     17 C         144.0184  140.1662  164.6929 C.ar    1  UNL1        0.0001
     18 C         143.0966  141.3393  164.8482 C.ar    1  UNL1        0.0028
     19 C         141.8637  141.2177  165.6940 C.ar    1  UNL1        0.0005
     20 C         143.4076  142.6342  164.1577 C.ar    1  UNL1        0.0384
     21 C         143.4278  142.6989  162.6592 C.ar    1  UNL1        0.1022
     22 N         143.7388  143.9936  161.9686 N.ar    1  UNL1       -0.2224
     23 C         144.0295  145.2236  162.7766 C.ar    1  UNL1        0.1989
     24 N         144.0092  145.1588  164.2751 N.ar    1  UNL1       -0.2224
     25 C         143.6982  143.8640  164.9656 C.ar    1  UNL1        0.1022
     26 C         139.6601  139.4253  165.9365 C.ar    1  UNL1        0.0326
     27 C         139.7377  138.0128  165.4378 C.ar    1  UNL1        0.0210
     28 C         139.0780  137.6370  164.1441 C.ar    1  UNL1        0.0985
     29 N         138.3408  138.6737  163.3492 N.ar    1  UNL1       -0.2426
     30 C         138.2633  140.0862  163.8480 C.ar    1  UNL1        0.1248
     31 C         138.9229  140.4620  165.1416 C.ar    1  UNL1        0.0207
     32 C         137.5261  141.1228  163.0531 C.3     1  UNL1        0.3581
     33 F         137.3037  140.9229  161.5833 F       1  UNL1       -0.1915
     34 F         137.0112  142.3595  163.7281 F       1  UNL1       -0.1915
@<TRIPOS>BOND
     1     1     2    1
     2     2     3    2
     3     3     4    1
     4     4    14    1
     5    14    15   ar
     6    15    16   ar
     7    16    17   ar
     8    17    18   ar
     9    18    20    1
    10    20    21   ar
    11    21    22   ar
    12    22    23   ar
    13    23    24   ar
    14    24    25   ar
    15    18    19   ar
    16     4    26    1
    17    26    27   ar
    18    27    28   ar
    19    28    29   ar
    20    29    30   ar
    21    30    32    1
    22    32    33    1
    23    32    34    1
    24    30    31   ar
    25     4     5    1
    26     5     6   ar
    27     6     7   ar
    28     7     8   ar
    29     8     9   ar
    30     9    10    1
    31     9    11   ar
    32    11     2    1
    33    19    14   ar
    34    31    26   ar
    35    11     5   ar
    36    25    20   ar
    37     1    12    1
    38     1    13    1
@<TRIPOS>MOLECULE
*****
 34 38 0 0 0
SMALL
GASTEIGER

@<TRIPOS>ATOM
      1 N         137.5565  143.9094  162.0595 N.pl3   1  UNL1       -0.2464
      2 C         138.7142  143.2060  162.7037 C.2     1  UNL1        0.3157
      3 N         138.7553  141.7615  163.1056 N.2     1  UNL1       -0.0614
      4 C         140.1006  141.4865  163.7093 C.3     1  UNL1        0.2309
      5 C         140.8910  142.7610  163.6805 C.ar    1  UNL1        0.0390
      6 C         142.2802  143.0912  164.1399 C.ar    1  UNL1        0.0008
      7 C         142.8125  144.4841  163.9777 C.ar    1  UNL1        0.0021
      8 C         141.9556  145.5469  163.3562 C.ar    1  UNL1        0.0299
      9 C         140.5665  145.2167  162.8968 C.ar    1  UNL1        0.1470
     10 F         139.7096  146.2795  162.2753 F       1  UNL1       -0.2039
     11 C         140.0341  143.8238  163.0589 C.ar    1  UNL1        0.1094
     12 H         136.7273  143.4158  161.8645 H       1  UNL1        0.2884
     13 H         137.6258  144.8647  161.8318 H       1  UNL1        0.2884
     14 C         141.3347  140.9202  164.3468 C.ar    1  UNL1        0.0297
     15 C         142.4484  140.3955  163.4898 C.ar    1  UNL1        0.0004
     16 C         143.6824  139.8292  164.1274 C.ar    1  UNL1       -0.0002
     17 C         143.8028  139.7877  165.6220 C.ar    1  UNL1        0.0001
     18 C         142.6891  140.3123  166.4790 C.ar    1  UNL1        0.0028
     19 C         141.4550  140.8786  165.8414 C.ar    1  UNL1        0.0005
     20 C         142.8094  140.2708  167.9736 C.ar    1  UNL1        0.0384
     21 C         142.8949  141.5485  168.7549 C.ar    1  UNL1        0.1022
     22 N         143.0152  141.5071  170.2494 N.ar    1  UNL1       -0.2224
     23 C         143.0500  140.1880  170.9627 C.ar    1  UNL1        0.1989
     24 N         142.9645  138.9104  170.1815 N.ar    1  UNL1       -0.2224
     25 C         142.8442  138.9518  168.6869 C.ar    1  UNL1        0.1022
     26 C         139.5683  140.0935  163.8714 C.ar    1  UNL1        0.0326
     27 C         139.6428  139.1244  162.7289 C.ar    1  UNL1        0.0210
     28 C         139.1104  137.7315  162.8910 C.ar    1  UNL1        0.0985
     29 N         138.5035  137.3076  164.1956 N.ar    1  UNL1       -0.2426
     30 C         138.4290  138.2767  165.3381 C.ar    1  UNL1        0.1248
     31 C         138.9613  139.6696  165.1760 C.ar    1  UNL1        0.0207
     32 C         137.8220  137.8529  166.6427 C.3     1  UNL1        0.3581
     33 F         137.5056  138.8781  167.6909 F       1  UNL1       -0.1915
     34 F         137.5316  136.4038  166.8992 F       1  UNL1       -0.1915
@<TRIPOS>BOND
     1     1     2    1
     2     2     3    2
     3     3     4    1
     4     4    14    1
     5    14    15   ar
     6    15    16   ar
     7    16    17   ar
     8    17    18   ar
     9    18    20    1
    10    20    21   ar
    11    21    22   ar
    12    22    23   ar
    13    23    24   ar
    14    24    25   ar
    15    18    19   ar
    16     4    26    1
    17    26    27   ar
    18    27    28   ar
    19    28    29   ar
    20    29    30   ar
    21    30    32    1
    22    32    33    1
    23    32    34    1
    24    30    31   ar
    25     4     5    1
    26     5     6   ar
    27     6     7   ar
    28     7     8   ar
    29     8     9   ar
    30     9    10    1
    31     9    11   ar
    32    11     2    1
    33    19    14   ar
    34    31    26   ar
    35    11     5   ar
    36    25    20   ar
    37     1    12    1
    38     1    13    1
@<TRIPOS>MOLECULE
*****
 34 38 0 0 0
SMALL
GASTEIGER

@<TRIPOS>ATOM
      1 N         141.4851  141.7231  169.3449 N.pl3   1  UNL1       -0.2464
      2 C         141.2699  140.9965  168.0504 C.2     1  UNL1        0.3157
      3 N         142.2108  140.9786  166.8824 N.2     1  UNL1       -0.0614
      4 C         141.5984  140.1311  165.8069 C.3     1  UNL1        0.2309
      5 C         140.2790  139.6253  166.3101 C.ar    1  UNL1        0.0390
      6 C         139.2362  138.7468  165.6850 C.ar    1  UNL1        0.0008
      7 C         137.9905  138.4032  166.4464 C.ar    1  UNL1        0.0021
      8 C         137.7874  138.9380  167.8330 C.ar    1  UNL1        0.0299
      9 C         138.8302  139.8164  168.4582 C.ar    1  UNL1        0.1470
     10 F         138.6271  140.3512  169.8449 F       1  UNL1       -0.2039
     11 C         140.0759  140.1601  167.6968 C.ar    1  UNL1        0.1094
     12 H         142.3056  142.2491  169.4836 H       1  UNL1        0.2884
     13 H         140.8057  141.6741  170.0558 H       1  UNL1        0.2884
     14 C         141.2465  139.3556  164.5721 C.ar    1  UNL1        0.0297
     15 C         141.5592  137.8907  164.4919 C.ar    1  UNL1        0.0004
     16 C         141.2073  137.1151  163.2572 C.ar    1  UNL1       -0.0002
     17 C         140.5426  137.8044  162.1026 C.ar    1  UNL1        0.0001
     18 C         140.2298  139.2692  162.1827 C.ar    1  UNL1        0.0028
     19 C         140.5818  140.0448  163.4175 C.ar    1  UNL1        0.0005
     20 C         139.5651  139.9585  161.0282 C.ar    1  UNL1        0.0384
     21 C         139.4009  141.4496  161.0386 C.ar    1  UNL1        0.1022
     22 N         138.7362  142.1390  159.8842 N.ar    1  UNL1       -0.2224
     23 C         138.2358  141.3374  158.7192 C.ar    1  UNL1        0.1989
     24 N         138.4000  139.8465  158.7088 N.ar    1  UNL1       -0.2224
     25 C         139.0647  139.1570  159.8633 C.ar    1  UNL1        0.1022
     26 C         142.8443  140.4749  165.0454 C.ar    1  UNL1        0.0326
     27 C         143.9421  139.4622  164.9070 C.ar    1  UNL1        0.0210
     28 C         145.1879  139.8059  164.1456 C.ar    1  UNL1        0.0985
     29 N         145.3359  141.1623  163.5226 N.ar    1  UNL1       -0.2426
     30 C         144.2380  142.1750  163.6610 C.ar    1  UNL1        0.1248
     31 C         142.9923  141.8313  164.4224 C.ar    1  UNL1        0.0207
     32 C         144.3860  143.5315  163.0379 C.3     1  UNL1        0.3581
     33 F         144.1204  144.7634  163.8513 F       1  UNL1       -0.1915
     34 F         144.7996  143.6560  161.6015 F       1  UNL1       -0.1915
@<TRIPOS>BOND
     1     1     2    1
     2     2     3    2
     3     3     4    1
     4     4    14    1
     5    14    15   ar
     6    15    16   ar
     7    16    17   ar
     8    17    18   ar
     9    18    20    1
    10    20    21   ar
    11    21    22   ar
    12    22    23   ar
    13    23    24   ar
    14    24    25   ar
    15    18    19   ar
    16     4    26    1
    17    26    27   ar
    18    27    28   ar
    19    28    29   ar
    20    29    30   ar
    21    30    32    1
    22    32    33    1
    23    32    34    1
    24    30    31   ar
    25     4     5    1
    26     5     6   ar
    27     6     7   ar
    28     7     8   ar
    29     8     9   ar
    30     9    10    1
    31     9    11   ar
    32    11     2    1
    33    19    14   ar
    34    31    26   ar
    35    11     5   ar
    36    25    20   ar
    37     1    12    1
    38     1    13    1
@<TRIPOS>MOLECULE
*****
 34 38 0 0 0
SMALL
GASTEIGER

@<TRIPOS>ATOM
      1 N         136.9703  137.5615  167.6785 N.pl3   1  UNL1       -0.2464
      2 C         138.0160  138.4554  167.0807 C.2     1  UNL1        0.3157
      3 N         138.5448  138.3789  165.6791 N.2     1  UNL1       -0.0614
      4 C         139.5721  139.4590  165.5117 C.3     1  UNL1        0.2309
      5 C         139.6783  140.2030  166.8099 C.ar    1  UNL1        0.0390
      6 C         140.5264  141.3651  167.2342 C.ar    1  UNL1        0.0008
      7 C         140.4128  141.9069  168.6283 C.ar    1  UNL1        0.0021
      8 C         139.4511  141.2866  169.5980 C.ar    1  UNL1        0.0299
      9 C         138.6030  140.1245  169.1736 C.ar    1  UNL1        0.1470
     10 F         137.6412  139.5043  170.1433 F       1  UNL1       -0.2039
     11 C         138.7166  139.5827  167.7796 C.ar    1  UNL1        0.1094
     12 H         136.5668  136.8452  167.1368 H       1  UNL1        0.2884
     13 H         136.6875  137.6910  168.6126 H       1  UNL1        0.2884
     14 C         140.6232  140.4257  165.0529 C.ar    1  UNL1        0.0297
     15 C         142.0360  140.2829  165.5364 C.ar    1  UNL1        0.0004
     16 C         143.0871  141.2497  165.0776 C.ar    1  UNL1       -0.0002
     17 C         142.7255  142.3593  164.1352 C.ar    1  UNL1        0.0001
     18 C         141.3127  142.5022  163.6517 C.ar    1  UNL1        0.0028
     19 C         140.2616  141.5354  164.1105 C.ar    1  UNL1        0.0005
     20 C         140.9510  143.6118  162.7094 C.ar    1  UNL1        0.0384
     21 C         141.8849  143.9847  161.5963 C.ar    1  UNL1        0.1022
     22 N         141.5233  145.0942  160.6540 N.ar    1  UNL1       -0.2224
     23 C         140.2277  145.8308  160.8247 C.ar    1  UNL1        0.1989
     24 N         139.2939  145.4579  161.9377 N.ar    1  UNL1       -0.2224
     25 C         139.6555  144.3483  162.8800 C.ar    1  UNL1        0.1022
     26 C         139.6857  138.9171  164.1176 C.ar    1  UNL1        0.0326
     27 C         138.4507  138.6996  163.2945 C.ar    1  UNL1        0.0210
     28 C         138.5643  138.1578  161.9005 C.ar    1  UNL1        0.0985
     29 N         139.9129  137.8333  161.3295 N.ar    1  UNL1       -0.2426
     30 C         141.1479  138.0508  162.1525 C.ar    1  UNL1        0.1248
     31 C         141.0343  138.5926  163.5466 C.ar    1  UNL1        0.0207
     32 C         142.4965  137.7263  161.5816 C.3     1  UNL1        0.3581
     33 F         143.7324  137.9554  162.4001 F       1  UNL1       -0.1915
     34 F         142.6093  137.1728  160.1920 F       1  UNL1       -0.1915
@<TRIPOS>BOND
     1     1     2    1
     2     2     3    2
     3     3     4    1
     4     4    14    1
     5    14    15   ar
     6    15    16   ar
     7    16    17   ar
     8    17    18   ar
     9    18    20    1
    10    20    21   ar
    11    21    22   ar
    12    22    23   ar
    13    23    24   ar
    14    24    25   ar
    15    18    19   ar
    16     4    26    1
    17    26    27   ar
    18    27    28   ar
    19    28    29   ar
    20    29    30   ar
    21    30    32    1
    22    32    33    1
    23    32    34    1
    24    30    31   ar
    25     4     5    1
    26     5     6   ar
    27     6     7   ar
    28     7     8   ar
    29     8     9   ar
    30     9    10    1
    31     9    11   ar
    32    11     2    1
    33    19    14   ar
    34    31    26   ar
    35    11     5   ar
    36    25    20   ar
    37     1    12    1
    38     1    13    1
@<TRIPOS>MOLECULE
*****
 34 38 0 0 0
SMALL
GASTEIGER

@<TRIPOS>ATOM
      1 N         136.6455  137.6164  168.1584 N.pl3   1  UNL1       -0.2464
      2 C         137.7559  138.4503  167.5911 C.2     1  UNL1        0.3157
      3 N         138.3343  138.3282  166.2126 N.2     1  UNL1       -0.0614
      4 C         139.4186  139.3552  166.0723 C.3     1  UNL1        0.2309
      5 C         139.5103  140.1120  167.3642 C.ar    1  UNL1        0.0390
      6 C         140.3967  141.2380  167.8070 C.ar    1  UNL1        0.0008
      7 C         140.2555  141.8048  169.1886 C.ar    1  UNL1        0.0021
      8 C         139.2279  141.2456  170.1273 C.ar    1  UNL1        0.0299
      9 C         138.3414  140.1195  169.6844 C.ar    1  UNL1        0.1470
     10 F         137.3137  139.5603  170.6231 F       1  UNL1       -0.2039
     11 C         138.4826  139.5527  168.3029 C.ar    1  UNL1        0.1094
     12 H         136.2291  136.9126  167.6103 H       1  UNL1        0.2884
     13 H         136.3333  137.7729  169.0789 H       1  UNL1        0.2884
     14 C         140.5324  140.2636  165.6432 C.ar    1  UNL1        0.0297
     15 C         141.9290  140.0217  166.1344 C.ar    1  UNL1        0.0004
     16 C         143.0429  140.9302  165.7053 C.ar    1  UNL1       -0.0002
     17 C         142.7602  142.0805  164.7850 C.ar    1  UNL1        0.0001
     18 C         141.3637  142.3224  164.2938 C.ar    1  UNL1        0.0028
     19 C         140.2498  141.4139  164.7229 C.ar    1  UNL1        0.0005
     20 C         141.0809  143.4727  163.3735 C.ar    1  UNL1        0.0384
     21 C         139.8108  144.2570  163.5218 C.ar    1  UNL1        0.1022
     22 N         139.5280  145.4072  162.6017 N.ar    1  UNL1       -0.2224
     23 C         140.5152  145.7732  161.5331 C.ar    1  UNL1        0.1989
     24 N         141.7851  144.9889  161.3849 N.ar    1  UNL1       -0.2224
     25 C         142.0680  143.8386  162.3051 C.ar    1  UNL1        0.1022
     26 C         139.5598  138.7883  164.6907 C.ar    1  UNL1        0.0326
     27 C         140.6889  137.8524  164.3758 C.ar    1  UNL1        0.0210
     28 C         140.8300  137.2856  162.9942 C.ar    1  UNL1        0.0985
     29 N         139.8421  137.6547  161.9276 N.ar    1  UNL1       -0.2426
     30 C         138.7130  138.5905  162.2425 C.ar    1  UNL1        0.1248
     31 C         138.5719  139.1574  163.6240 C.ar    1  UNL1        0.0207
     32 C         137.7251  138.9596  161.1758 C.3     1  UNL1        0.3581
     33 F         137.9817  140.1453  160.2937 F       1  UNL1       -0.1915
     34 F         136.4805  138.1430  160.9913 F       1  UNL1       -0.1915
@<TRIPOS>BOND
     1     1     2    1
     2     2     3    2
     3     3     4    1
     4     4    14    1
     5    14    15   ar
     6    15    16   ar
     7    16    17   ar
     8    17    18   ar
     9    18    20    1
    10    20    21   ar
    11    21    22   ar
    12    22    23   ar
    13    23    24   ar
    14    24    25   ar
    15    18    19   ar
    16     4    26    1
    17    26    27   ar
    18    27    28   ar
    19    28    29   ar
    20    29    30   ar
    21    30    32    1
    22    32    33    1
    23    32    34    1
    24    30    31   ar
    25     4     5    1
    26     5     6   ar
    27     6     7   ar
    28     7     8   ar
    29     8     9   ar
    30     9    10    1
    31     9    11   ar
    32    11     2    1
    33    19    14   ar
    34    31    26   ar
    35    11     5   ar
    36    25    20   ar
    37     1    12    1
    38     1    13    1
@<TRIPOS>MOLECULE
*****
 34 38 0 0 0
SMALL
GASTEIGER

@<TRIPOS>ATOM
      1 N         142.1224  145.0805  161.3594 N.pl3   1  UNL1       -0.2464
      2 C         141.5388  143.9759  162.1897 C.2     1  UNL1        0.3157
      3 N         142.2191  142.6875  162.5467 N.2     1  UNL1       -0.0614
      4 C         141.2732  141.8811  163.3863 C.3     1  UNL1        0.2309
      5 C         140.0084  142.6711  163.5483 C.ar    1  UNL1        0.0390
      6 C         138.7284  142.3788  164.2737 C.ar    1  UNL1        0.0008
      7 C         137.6126  143.3811  164.2595 C.ar    1  UNL1        0.0021
      8 C         137.7768  144.6758  163.5199 C.ar    1  UNL1        0.0299
      9 C         139.0567  144.9681  162.7946 C.ar    1  UNL1        0.1470
     10 F         139.2209  146.2627  162.0550 F       1  UNL1       -0.2039
     11 C         140.1725  143.9657  162.8088 C.ar    1  UNL1        0.1094
     12 H         143.0328  144.9940  160.9949 H       1  UNL1        0.2884
     13 H         141.5949  145.8920  161.1791 H       1  UNL1        0.2884
     14 C         140.5606  140.8652  164.2290 C.ar    1  UNL1        0.0297
     15 C         139.7372  139.7944  163.5767 C.ar    1  UNL1        0.0004
     16 C         139.0246  138.7784  164.4193 C.ar    1  UNL1       -0.0002
     17 C         139.1354  138.8332  165.9142 C.ar    1  UNL1        0.0001
     18 C         139.9588  139.9040  166.5665 C.ar    1  UNL1        0.0028
     19 C         140.6715  140.9200  165.7239 C.ar    1  UNL1        0.0005
     20 C         140.0697  139.9588  168.0614 C.ar    1  UNL1        0.0384
     21 C         138.8301  139.9532  168.9061 C.ar    1  UNL1        0.1022
     22 N         138.9408  140.0081  170.4009 N.ar    1  UNL1       -0.2224
     23 C         140.2913  140.0686  171.0511 C.ar    1  UNL1        0.1989
     24 N         141.5308  140.0743  170.2065 N.ar    1  UNL1       -0.2224
     25 C         141.4201  140.0194  168.7116 C.ar    1  UNL1        0.1022
     26 C         142.3891  140.8788  163.4005 C.ar    1  UNL1        0.0326
     27 C         143.3917  140.8883  164.5161 C.ar    1  UNL1        0.0210
     28 C         144.5075  139.8859  164.5302 C.ar    1  UNL1        0.0985
     29 N         144.6207  138.8741  163.4287 N.ar    1  UNL1       -0.2426
     30 C         143.6181  138.8646  162.3131 C.ar    1  UNL1        0.1248
     31 C         142.5023  139.8669  162.2990 C.ar    1  UNL1        0.0207
     32 C         143.7314  137.8528  161.2116 C.3     1  UNL1        0.3581
     33 F         144.8500  136.8535  161.2231 F       1  UNL1       -0.1915
     34 F         142.7260  137.8402  160.0985 F       1  UNL1       -0.1915
@<TRIPOS>BOND
     1     1     2    1
     2     2     3    2
     3     3     4    1
     4     4    14    1
     5    14    15   ar
     6    15    16   ar
     7    16    17   ar
     8    17    18   ar
     9    18    20    1
    10    20    21   ar
    11    21    22   ar
    12    22    23   ar
    13    23    24   ar
    14    24    25   ar
    15    18    19   ar
    16     4    26    1
    17    26    27   ar
    18    27    28   ar
    19    28    29   ar
    20    29    30   ar
    21    30    32    1
    22    32    33    1
    23    32    34    1
    24    30    31   ar
    25     4     5    1
    26     5     6   ar
    27     6     7   ar
    28     7     8   ar
    29     8     9   ar
    30     9    10    1
    31     9    11   ar
    32    11     2    1
    33    19    14   ar
    34    31    26   ar
    35    11     5   ar
    36    25    20   ar
    37     1    12    1
    38     1    13    1
@<TRIPOS>MOLECULE
*****
 34 38 0 0 0
SMALL
GASTEIGER

@<TRIPOS>ATOM
      1 N         141.9205  144.8368  160.9495 N.pl3   1  UNL1       -0.2464
      2 C         141.3340  143.7812  161.8393 C.2     1  UNL1        0.3157
      3 N         141.9590  142.4577  162.1675 N.2     1  UNL1       -0.0614
      4 C         141.0307  141.7223  163.0881 C.3     1  UNL1        0.2309
      5 C         139.8320  142.5913  163.3288 C.ar    1  UNL1        0.0390
      6 C         138.5940  142.3883  164.1511 C.ar    1  UNL1        0.0008
      7 C         137.5435  143.4577  164.2016 C.ar    1  UNL1        0.0021
      8 C         137.7309  144.7302  163.4298 C.ar    1  UNL1        0.0299
      9 C         138.9689  144.9332  162.6075 C.ar    1  UNL1        0.1470
     10 F         139.1563  146.2057  161.8357 F       1  UNL1       -0.2039
     11 C         140.0194  143.8637  162.5570 C.ar    1  UNL1        0.1094
     12 H         142.7943  144.6893  160.5207 H       1  UNL1        0.2884
     13 H         141.4316  145.6771  160.7944 H       1  UNL1        0.2884
     14 C         140.3221  140.7633  163.9981 C.ar    1  UNL1        0.0297
     15 C         139.4360  139.6986  163.4224 C.ar    1  UNL1        0.0004
     16 C         138.7274  138.7396  164.3324 C.ar    1  UNL1       -0.0002
     17 C         138.9048  138.8453  165.8182 C.ar    1  UNL1        0.0001
     18 C         139.7908  139.9100  166.3939 C.ar    1  UNL1        0.0028
     19 C         140.4994  140.8690  165.4838 C.ar    1  UNL1        0.0005
     20 C         139.9682  140.0158  167.8796 C.ar    1  UNL1        0.0384
     21 C         138.7843  139.8671  168.7887 C.ar    1  UNL1        0.1022
     22 N         138.9616  139.9728  170.2743 N.ar    1  UNL1       -0.2224
     23 C         140.3228  140.2273  170.8510 C.ar    1  UNL1        0.1989
     24 N         141.5066  140.3760  169.9419 N.ar    1  UNL1       -0.2224
     25 C         141.3293  140.2702  168.4561 C.ar    1  UNL1        0.1022
     26 C         142.0813  140.6528  163.0375 C.ar    1  UNL1        0.0326
     27 C         142.4543  140.0293  161.7253 C.ar    1  UNL1        0.0210
     28 C         143.5049  138.9599  161.6748 C.ar    1  UNL1        0.0985
     29 N         144.1824  138.5140  162.9366 N.ar    1  UNL1       -0.2426
     30 C         143.8094  139.1375  164.2489 C.ar    1  UNL1        0.1248
     31 C         142.7589  140.2069  164.2993 C.ar    1  UNL1        0.0207
     32 C         144.4870  138.6916  165.5106 C.3     1  UNL1        0.3581
     33 F         145.9644  138.4324  165.5173 F       1  UNL1       -0.1915
     34 F         143.6871  138.5048  166.7657 F       1  UNL1       -0.1915
@<TRIPOS>BOND
     1     1     2    1
     2     2     3    2
     3     3     4    1
     4     4    14    1
     5    14    15   ar
     6    15    16   ar
     7    16    17   ar
     8    17    18   ar
     9    18    20    1
    10    20    21   ar
    11    21    22   ar
    12    22    23   ar
    13    23    24   ar
    14    24    25   ar
    15    18    19   ar
    16     4    26    1
    17    26    27   ar
    18    27    28   ar
    19    28    29   ar
    20    29    30   ar
    21    30    32    1
    22    32    33    1
    23    32    34    1
    24    30    31   ar
    25     4     5    1
    26     5     6   ar
    27     6     7   ar
    28     7     8   ar
    29     8     9   ar
    30     9    10    1
    31     9    11   ar
    32    11     2    1
    33    19    14   ar
    34    31    26   ar
    35    11     5   ar
    36    25    20   ar
    37     1    12    1
    38     1    13    1
