@<TRIPOS>MOLECULE
*****
 35 39 0 0 0
SMALL
GASTEIGER

@<TRIPOS>ATOM
      1 C         141.1894  142.0103  162.0208 C.3     1  UNL1        0.0545
      2 C         140.8989  143.4674  161.8151 C.3     1  UNL1        0.0162
      3 C         139.5957  143.7799  162.4888 C.3     1  UNL1        0.0095
      4 C         138.6106  144.8735  162.7780 C.3     1  UNL1        0.0005
      5 C         137.4869  144.2854  163.5788 C.3     1  UNL1        0.0005
      6 C         137.7774  142.8282  163.7845 C.3     1  UNL1        0.0087
      7 C         139.0806  142.5158  163.1109 C.3     1  UNL1        0.0704
      8 C         140.0656  141.4221  162.8216 C.3     1  UNL1        0.0243
      9 C         138.5657  141.2518  163.7329 C.2     1  UNL1        0.2250
     10 O         137.7094  140.3163  162.9318 O.2     1  UNL1       -0.2749
     11 N         138.9070  140.9231  165.1562 N.am    1  UNL1       -0.2751
     12 C         138.3920  139.6591  165.7782 C.3     1  UNL1        0.0984
     13 C         138.7334  139.3304  167.2014 C.3     1  UNL1        0.0476
     14 C         139.5896  140.2659  168.0025 C.ar    1  UNL1       -0.0226
     15 C         139.9310  139.9372  169.4258 C.ar    1  UNL1       -0.0014
     16 C         140.7872  140.8726  170.2269 C.ar    1  UNL1        0.0368
     17 C         141.3022  142.1367  169.6048 C.ar    1  UNL1        0.1465
     18 C         140.9609  142.4653  168.1816 C.ar    1  UNL1        0.0343
     19 C         140.1046  141.5299  167.3805 C.ar    1  UNL1       -0.0032
     20 C         139.7633  141.8585  165.9573 C.3     1  UNL1        0.1199
     21 O         142.1585  143.0721  170.4059 O.3     1  UNL1       -0.4045
     22 C         143.6532  142.9814  170.3184 C.3     1  UNL1        0.5753
     23 F         145.1479  142.8908  170.2310 F       1  UNL1       -0.1328
     24 F         143.7786  144.1539  171.2455 F       1  UNL1       -0.1328
     25 F         143.5279  141.8090  169.3913 F       1  UNL1       -0.1328
     26 N         142.3925  141.2710  161.5146 N.3     1  UNL1       -0.2975
     27 H         142.0538  140.3953  161.1159 H       1  UNL1        0.1232
     28 C         144.6091  141.8985  162.7156 C.3     1  UNL1        0.1591
     29 C         145.7223  141.5440  163.6564 C.3     1  UNL1        0.1729
     30 O         145.7319  140.2074  164.3371 O.3     1  UNL1       -0.3511
     31 C         144.6284  139.2252  164.0770 C.3     1  UNL1        0.1437
     32 C         143.5152  139.5798  163.1361 C.3     1  UNL1        0.0503
     33 C         143.5056  140.9164  162.4554 C.3     1  UNL1        0.0865
     34 C         144.1711  144.4583  162.7901 C.3     1  UNL1        0.1742
     35 O         144.5995  143.2351  162.0349 O.3     1  UNL1       -0.3496
@<TRIPOS>BOND
     1    34    35    1
     2    35    28    1
     3    28    29    1
     4    29    30    1
     5    30    31    1
     6    31    32    1
     7    32    33    1
     8    33    26    1
     9     1    26    1
    10     1     2    1
    11     3     2    1
    12     3     4    1
    13     4     5    1
    14     5     6    1
    15     6     7    1
    16     7     9    1
    17     9    10    2
    18     9    11   am
    19    11    12    1
    20    12    13    1
    21    13    14    1
    22    14    15   ar
    23    15    16   ar
    24    16    17   ar
    25    17    21    1
    26    21    22    1
    27    22    23    1
    28    22    24    1
    29    22    25    1
    30    17    18   ar
    31    18    19   ar
    32    19    20    1
    33     7     8    1
    34    33    28    1
    35     8     1    1
    36     7     3    1
    37    20    11    1
    38    19    14   ar
    39    26    27    1
@<TRIPOS>MOLECULE
*****
 35 39 0 0 0
SMALL
GASTEIGER

@<TRIPOS>ATOM
      1 C         139.5684  139.3266  166.3478 C.3     1  UNL1        0.0545
      2 C         139.0849  139.7096  167.7152 C.3     1  UNL1        0.0162
      3 C         140.2857  139.9265  168.5875 C.3     1  UNL1        0.0095
      4 C         140.7291  140.2973  169.9716 C.3     1  UNL1        0.0005
      5 C         142.2287  140.2776  169.9989 C.3     1  UNL1        0.0005
      6 C         142.7122  139.8946  168.6316 C.3     1  UNL1        0.0087
      7 C         141.5114  139.6776  167.7593 C.3     1  UNL1        0.0704
      8 C         141.0680  139.3069  166.3751 C.3     1  UNL1        0.0243
      9 C         142.7370  139.4288  166.9311 C.2     1  UNL1        0.2250
     10 O         143.5962  138.2300  167.2044 O.2     1  UNL1       -0.2749
     11 N         143.1034  140.3787  165.8295 N.am    1  UNL1       -0.2751
     12 C         144.3290  140.1298  165.0013 C.3     1  UNL1        0.0984
     13 C         144.6953  141.0797  163.8997 C.3     1  UNL1        0.0476
     14 C         143.8361  142.2784  163.6264 C.ar    1  UNL1       -0.0226
     15 C         144.2026  143.2283  162.5248 C.ar    1  UNL1       -0.0014
     16 C         143.3434  144.4271  162.2514 C.ar    1  UNL1        0.0368
     17 C         142.1177  144.6760  163.0797 C.ar    1  UNL1        0.1465
     18 C         141.7514  143.7261  164.1812 C.ar    1  UNL1        0.0343
     19 C         142.6106  142.5273  164.4546 C.ar    1  UNL1       -0.0032
     20 C         142.2442  141.5774  165.5561 C.3     1  UNL1        0.1199
     21 O         141.2585  145.8748  162.8064 O.3     1  UNL1       -0.4045
     22 C         139.8087  145.6963  162.4653 C.3     1  UNL1        0.5753
     23 F         138.3590  145.5179  162.1242 F       1  UNL1       -0.1328
     24 F         140.1275  145.8844  161.0117 F       1  UNL1       -0.1328
     25 F         139.4899  145.5082  163.9189 F       1  UNL1       -0.1328
     26 N         138.7040  139.0176  165.1615 N.3     1  UNL1       -0.2975
     27 H         139.2021  138.3207  164.6077 H       1  UNL1        0.1232
     28 C         138.0362  139.8026  162.7766 C.3     1  UNL1        0.1591
     29 C         137.6359  140.8990  161.8344 C.3     1  UNL1        0.1729
     30 O         137.5030  142.3067  162.3350 O.3     1  UNL1       -0.3511
     31 C         137.7704  142.6181  163.7778 C.3     1  UNL1        0.1437
     32 C         138.1708  141.5217  164.7199 C.3     1  UNL1        0.0503
     33 C         138.3036  140.1139  164.2193 C.3     1  UNL1        0.0865
     34 C         139.2747  138.0374  161.3273 C.3     1  UNL1        0.1742
     35 O         138.1691  138.3949  162.2760 O.3     1  UNL1       -0.3496
@<TRIPOS>BOND
     1    34    35    1
     2    35    28    1
     3    28    29    1
     4    29    30    1
     5    30    31    1
     6    31    32    1
     7    32    33    1
     8    33    26    1
     9     1    26    1
    10     1     2    1
    11     3     2    1
    12     3     4    1
    13     4     5    1
    14     5     6    1
    15     6     7    1
    16     7     9    1
    17     9    10    2
    18     9    11   am
    19    11    12    1
    20    12    13    1
    21    13    14    1
    22    14    15   ar
    23    15    16   ar
    24    16    17   ar
    25    17    21    1
    26    21    22    1
    27    22    23    1
    28    22    24    1
    29    22    25    1
    30    17    18   ar
    31    18    19   ar
    32    19    20    1
    33     7     8    1
    34    33    28    1
    35     8     1    1
    36     7     3    1
    37    20    11    1
    38    19    14   ar
    39    26    27    1
@<TRIPOS>MOLECULE
*****
 35 39 0 0 0
SMALL
GASTEIGER

@<TRIPOS>ATOM
      1 C         142.5312  143.0617  163.0144 C.3     1  UNL1        0.0545
      2 C         143.9113  143.1251  163.5986 C.3     1  UNL1        0.0162
      3 C         144.4209  141.7211  163.7373 C.3     1  UNL1        0.0095
      4 C         145.5887  140.8925  164.1841 C.3     1  UNL1        0.0005
      5 C         145.2453  139.4494  163.9617 C.3     1  UNL1        0.0005
      6 C         143.8652  139.3860  163.3774 C.3     1  UNL1        0.0087
      7 C         143.3557  140.7900  163.2388 C.3     1  UNL1        0.0704
      8 C         142.1878  141.6185  162.7920 C.3     1  UNL1        0.0243
      9 C         142.2905  139.8590  162.7402 C.2     1  UNL1        0.2250
     10 O         142.3431  139.3444  161.3322 O.2     1  UNL1       -0.2749
     11 N         141.1727  139.4425  163.6497 N.am    1  UNL1       -0.2751
     12 C         140.1075  138.5114  163.1512 C.3     1  UNL1        0.0984
     13 C         138.9898  138.0950  164.0607 C.3     1  UNL1        0.0476
     14 C         138.9372  138.6096  165.4687 C.ar    1  UNL1       -0.0226
     15 C         137.8194  138.1931  166.3781 C.ar    1  UNL1       -0.0014
     16 C         137.7668  138.7077  167.7861 C.ar    1  UNL1        0.0368
     17 C         138.8320  139.6388  168.2846 C.ar    1  UNL1        0.1465
     18 C         139.9498  140.0552  167.3752 C.ar    1  UNL1        0.0343
     19 C         140.0024  139.5406  165.9672 C.ar    1  UNL1       -0.0032
     20 C         141.1201  139.9571  165.0577 C.3     1  UNL1        0.1199
     21 O         138.7795  140.1534  169.6926 O.3     1  UNL1       -0.4045
     22 C         139.9880  140.8023  170.2996 C.3     1  UNL1        0.5753
     23 F         141.1966  141.4511  170.9066 F       1  UNL1       -0.1328
     24 F         140.5547  139.4502  170.6167 F       1  UNL1       -0.1328
     25 F         139.4214  142.1544  169.9825 F       1  UNL1       -0.1328
     26 N         141.6493  144.2354  162.7066 N.3     1  UNL1       -0.2975
     27 H         142.1329  145.0652  163.0502 H       1  UNL1        0.1232
     28 C         139.0932  143.8945  162.3906 C.3     1  UNL1        0.1591
     29 C         137.6979  143.9484  162.9386 C.3     1  UNL1        0.1729
     30 O         137.4635  144.3969  164.3507 O.3     1  UNL1       -0.3511
     31 C         138.6244  144.7916  165.2147 C.3     1  UNL1        0.1437
     32 C         140.0197  144.7378  164.6667 C.3     1  UNL1        0.0503
     33 C         140.2540  144.2892  163.2546 C.3     1  UNL1        0.0865
     34 C         138.4478  142.3945  160.3698 C.3     1  UNL1        0.1742
     35 O         139.3276  143.4460  160.9786 O.3     1  UNL1       -0.3496
@<TRIPOS>BOND
     1    34    35    1
     2    35    28    1
     3    28    29    1
     4    29    30    1
     5    30    31    1
     6    31    32    1
     7    32    33    1
     8    33    26    1
     9     1    26    1
    10     1     2    1
    11     3     2    1
    12     3     4    1
    13     4     5    1
    14     5     6    1
    15     6     7    1
    16     7     9    1
    17     9    10    2
    18     9    11   am
    19    11    12    1
    20    12    13    1
    21    13    14    1
    22    14    15   ar
    23    15    16   ar
    24    16    17   ar
    25    17    21    1
    26    21    22    1
    27    22    23    1
    28    22    24    1
    29    22    25    1
    30    17    18   ar
    31    18    19   ar
    32    19    20    1
    33     7     8    1
    34    33    28    1
    35     8     1    1
    36     7     3    1
    37    20    11    1
    38    19    14   ar
    39    26    27    1
@<TRIPOS>MOLECULE
*****
 35 39 0 0 0
SMALL
GASTEIGER

@<TRIPOS>ATOM
      1 C         140.6933  137.6216  164.0692 C.3     1  UNL1        0.0545
      2 C         139.2449  137.4769  164.4312 C.3     1  UNL1        0.0162
      3 C         138.9896  138.2996  165.6592 C.3     1  UNL1        0.0095
      4 C         137.9367  138.7187  166.6418 C.3     1  UNL1        0.0005
      5 C         138.5767  139.6309  167.6461 C.3     1  UNL1        0.0005
      6 C         140.0251  139.7755  167.2841 C.3     1  UNL1        0.0087
      7 C         140.2804  138.9528  166.0561 C.3     1  UNL1        0.0704
      8 C         141.3333  138.5337  165.0734 C.3     1  UNL1        0.0243
      9 C         141.5710  139.6059  166.4530 C.2     1  UNL1        0.2250
     10 O         142.4365  138.9786  167.5053 O.2     1  UNL1       -0.2749
     11 N         141.9963  140.8864  165.7975 N.am    1  UNL1       -0.2751
     12 C         143.2870  141.5395  166.1944 C.3     1  UNL1        0.0984
     13 C         143.7121  142.8200  165.5390 C.3     1  UNL1        0.0476
     14 C         142.8466  143.4473  164.4866 C.ar    1  UNL1       -0.0226
     15 C         143.2719  144.7278  163.8312 C.ar    1  UNL1       -0.0014
     16 C         142.4064  145.3551  162.7789 C.ar    1  UNL1        0.0368
     17 C         141.1157  144.7020  162.3820 C.ar    1  UNL1        0.1465
     18 C         140.6905  143.4215  163.0375 C.ar    1  UNL1        0.0343
     19 C         141.5560  142.7942  164.0898 C.ar    1  UNL1       -0.0032
     20 C         141.1308  141.5138  164.7452 C.3     1  UNL1        0.1199
     21 O         140.2502  145.3293  161.3297 O.3     1  UNL1       -0.4045
     22 C         140.2951  144.8194  159.9197 C.3     1  UNL1        0.5753
     23 F         140.3402  144.3096  158.5097 F       1  UNL1       -0.1328
     24 F         141.3912  145.7931  159.6026 F       1  UNL1       -0.1328
     25 F         139.1991  143.8458  160.2367 F       1  UNL1       -0.1328
     26 N         141.3812  136.9687  162.9069 N.3     1  UNL1       -0.2975
     27 H         142.1421  136.4088  163.2916 H       1  UNL1        0.1232
     28 C         141.0895  138.3752  160.7421 C.3     1  UNL1        0.1591
     29 C         141.6806  139.2176  159.6507 C.3     1  UNL1        0.1729
     30 O         143.1545  139.4958  159.6329 O.3     1  UNL1       -0.3511
     31 C         144.0373  138.9316  160.7065 C.3     1  UNL1        0.1437
     32 C         143.4462  138.0892  161.7978 C.3     1  UNL1        0.0503
     33 C         141.9723  137.8110  161.8156 C.3     1  UNL1        0.0865
     34 C         138.6479  139.2002  161.0706 C.3     1  UNL1        0.1742
     35 O         139.6157  138.0970  160.7599 O.3     1  UNL1       -0.3496
@<TRIPOS>BOND
     1    34    35    1
     2    35    28    1
     3    28    29    1
     4    29    30    1
     5    30    31    1
     6    31    32    1
     7    32    33    1
     8    33    26    1
     9     1    26    1
    10     1     2    1
    11     3     2    1
    12     3     4    1
    13     4     5    1
    14     5     6    1
    15     6     7    1
    16     7     9    1
    17     9    10    2
    18     9    11   am
    19    11    12    1
    20    12    13    1
    21    13    14    1
    22    14    15   ar
    23    15    16   ar
    24    16    17   ar
    25    17    21    1
    26    21    22    1
    27    22    23    1
    28    22    24    1
    29    22    25    1
    30    17    18   ar
    31    18    19   ar
    32    19    20    1
    33     7     8    1
    34    33    28    1
    35     8     1    1
    36     7     3    1
    37    20    11    1
    38    19    14   ar
    39    26    27    1
@<TRIPOS>MOLECULE
*****
 35 39 0 0 0
SMALL
GASTEIGER

@<TRIPOS>ATOM
      1 C         140.4090  141.8863  160.8356 C.3     1  UNL1        0.0545
      2 C         138.9307  141.7314  160.6343 C.3     1  UNL1        0.0162
      3 C         138.5446  140.3514  161.0776 C.3     1  UNL1        0.0095
      4 C         137.3924  139.4027  161.2271 C.3     1  UNL1        0.0005
      5 C         137.9200  138.1184  161.7948 C.3     1  UNL1        0.0005
      6 C         139.3983  138.2734  161.9962 C.3     1  UNL1        0.0087
      7 C         139.7844  139.6534  161.5529 C.3     1  UNL1        0.0704
      8 C         140.9366  140.6021  161.4034 C.3     1  UNL1        0.0243
      9 C         141.0241  138.9555  162.0282 C.2     1  UNL1        0.2250
     10 O         141.8364  138.1346  161.0709 O.2     1  UNL1       -0.2749
     11 N         141.4515  139.0784  163.4608 N.am    1  UNL1       -0.2751
     12 C         142.6913  138.3804  163.9361 C.3     1  UNL1        0.0984
     13 C         143.1186  138.5034  165.3686 C.3     1  UNL1        0.0476
     14 C         142.3063  139.3242  166.3258 C.ar    1  UNL1       -0.0226
     15 C         142.7337  139.4471  167.7584 C.ar    1  UNL1       -0.0014
     16 C         141.9214  140.2680  168.7157 C.ar    1  UNL1        0.0368
     17 C         140.6816  140.9659  168.2403 C.ar    1  UNL1        0.1465
     18 C         140.2542  140.8430  166.8078 C.ar    1  UNL1        0.0343
     19 C         141.0666  140.0221  165.8506 C.ar    1  UNL1       -0.0032
     20 C         140.6392  139.8992  164.4180 C.3     1  UNL1        0.1199
     21 O         139.8692  141.7867  169.1976 O.3     1  UNL1       -0.4045
     22 C         140.3656  143.1309  169.6414 C.3     1  UNL1        0.5753
     23 F         140.8619  144.4751  170.0851 F       1  UNL1       -0.1328
     24 F         140.0250  143.7007  168.2963 F       1  UNL1       -0.1328
     25 F         140.7061  142.5612  170.9864 F       1  UNL1       -0.1328
     26 N         141.2177  143.1106  160.5240 N.3     1  UNL1       -0.2975
     27 H         141.9053  142.8384  159.8214 H       1  UNL1        0.1232
     28 C         141.2494  144.7479  162.5410 C.3     1  UNL1        0.1591
     29 C         142.0010  145.4485  163.6338 C.3     1  UNL1        0.1729
     30 O         143.4726  145.2123  163.8024 O.3     1  UNL1       -0.3511
     31 C         144.1927  144.2756  162.8783 C.3     1  UNL1        0.1437
     32 C         143.4411  143.5750  161.7854 C.3     1  UNL1        0.0503
     33 C         141.9694  143.8112  161.6168 C.3     1  UNL1        0.0865
     34 C         138.8119  144.4578  163.3923 C.3     1  UNL1        0.1742
     35 O         139.7777  144.9841  162.3723 O.3     1  UNL1       -0.3496
@<TRIPOS>BOND
     1    34    35    1
     2    35    28    1
     3    28    29    1
     4    29    30    1
     5    30    31    1
     6    31    32    1
     7    32    33    1
     8    33    26    1
     9     1    26    1
    10     1     2    1
    11     3     2    1
    12     3     4    1
    13     4     5    1
    14     5     6    1
    15     6     7    1
    16     7     9    1
    17     9    10    2
    18     9    11   am
    19    11    12    1
    20    12    13    1
    21    13    14    1
    22    14    15   ar
    23    15    16   ar
    24    16    17   ar
    25    17    21    1
    26    21    22    1
    27    22    23    1
    28    22    24    1
    29    22    25    1
    30    17    18   ar
    31    18    19   ar
    32    19    20    1
    33     7     8    1
    34    33    28    1
    35     8     1    1
    36     7     3    1
    37    20    11    1
    38    19    14   ar
    39    26    27    1
@<TRIPOS>MOLECULE
*****
 35 39 0 0 0
SMALL
GASTEIGER

@<TRIPOS>ATOM
      1 C         142.9618  142.6479  160.1331 C.3     1  UNL1        0.0545
      2 C         141.7656  143.3246  159.5321 C.3     1  UNL1        0.0162
      3 C         141.2049  144.2686  160.5540 C.3     1  UNL1        0.0095
      4 C         140.1191  145.2703  160.8142 C.3     1  UNL1        0.0005
      5 C         140.2976  145.7961  162.2077 C.3     1  UNL1        0.0005
      6 C         141.4938  145.1194  162.8087 C.3     1  UNL1        0.0087
      7 C         142.0545  144.1753  161.7868 C.3     1  UNL1        0.0704
      8 C         143.1403  143.1737  161.5266 C.3     1  UNL1        0.0243
      9 C         142.9041  144.0821  163.0194 C.2     1  UNL1        0.2250
     10 O         144.1936  144.8440  163.1009 O.2     1  UNL1       -0.2749
     11 N         142.4642  143.2268  164.1706 N.am    1  UNL1       -0.2751
     12 C         143.3138  143.1336  165.4032 C.3     1  UNL1        0.0984
     13 C         142.8739  142.2784  166.5543 C.3     1  UNL1        0.0476
     14 C         141.5844  141.5165  166.4728 C.ar    1  UNL1       -0.0226
     15 C         141.1445  140.6612  167.6240 C.ar    1  UNL1       -0.0014
     16 C         139.8550  139.8993  167.5425 C.ar    1  UNL1        0.0368
     17 C         139.0054  139.9926  166.3097 C.ar    1  UNL1        0.1465
     18 C         139.4453  140.8478  165.1586 C.ar    1  UNL1        0.0343
     19 C         140.7348  141.6097  165.2402 C.ar    1  UNL1       -0.0032
     20 C         141.1747  142.4649  164.0891 C.3     1  UNL1        0.1199
     21 O         137.7159  139.2307  166.2282 O.3     1  UNL1       -0.4045
     22 C         137.6712  137.7866  166.6316 C.3     1  UNL1        0.5753
     23 F         137.6265  136.3426  167.0350 F       1  UNL1       -0.1328
     24 F         136.7409  138.1298  167.7571 F       1  UNL1       -0.1328
     25 F         138.6015  137.4434  165.5061 F       1  UNL1       -0.1328
     26 N         143.8275  141.6250  159.4591 N.3     1  UNL1       -0.2975
     27 H         143.7518  141.7904  158.4555 H       1  UNL1        0.1232
     28 C         144.0173  139.5051  160.9490 C.3     1  UNL1        0.1591
     29 C         143.7600  138.0436  161.1675 C.3     1  UNL1        0.1729
     30 O         143.0555  137.2404  160.1146 O.3     1  UNL1       -0.3511
     31 C         142.6083  137.8988  158.8431 C.3     1  UNL1        0.1437
     32 C         142.8657  139.3603  158.6246 C.3     1  UNL1        0.0503
     33 C         143.5702  140.1634  159.6776 C.3     1  UNL1        0.0865
     34 C         144.3580  140.1340  163.4467 C.3     1  UNL1        0.1742
     35 O         144.7218  140.3082  162.0019 O.3     1  UNL1       -0.3496
@<TRIPOS>BOND
     1    34    35    1
     2    35    28    1
     3    28    29    1
     4    29    30    1
     5    30    31    1
     6    31    32    1
     7    32    33    1
     8    33    26    1
     9     1    26    1
    10     1     2    1
    11     3     2    1
    12     3     4    1
    13     4     5    1
    14     5     6    1
    15     6     7    1
    16     7     9    1
    17     9    10    2
    18     9    11   am
    19    11    12    1
    20    12    13    1
    21    13    14    1
    22    14    15   ar
    23    15    16   ar
    24    16    17   ar
    25    17    21    1
    26    21    22    1
    27    22    23    1
    28    22    24    1
    29    22    25    1
    30    17    18   ar
    31    18    19   ar
    32    19    20    1
    33     7     8    1
    34    33    28    1
    35     8     1    1
    36     7     3    1
    37    20    11    1
    38    19    14   ar
    39    26    27    1
@<TRIPOS>MOLECULE
*****
 35 39 0 0 0
SMALL
GASTEIGER

@<TRIPOS>ATOM
      1 C         139.6327  139.1531  166.0972 C.3     1  UNL1        0.0545
      2 C         139.1558  139.8817  167.3186 C.3     1  UNL1        0.0162
      3 C         140.3608  140.3196  168.0971 C.3     1  UNL1        0.0095
      4 C         140.8109  141.0406  169.3331 C.3     1  UNL1        0.0005
      5 C         142.3107  141.0283  169.3568 C.3     1  UNL1        0.0005
      6 C         142.7876  140.2997  168.1354 C.3     1  UNL1        0.0087
      7 C         141.5825  139.8617  167.3569 C.3     1  UNL1        0.0704
      8 C         141.1325  139.1408  166.1209 C.3     1  UNL1        0.0243
      9 C         142.8041  139.4038  166.6167 C.2     1  UNL1        0.2250
     10 O         143.6256  138.2696  167.1541 O.2     1  UNL1       -0.2749
     11 N         143.2044  140.0801  165.3389 N.am    1  UNL1       -0.2751
     12 C         144.4260  139.6222  164.5987 C.3     1  UNL1        0.0984
     13 C         144.8262  140.2985  163.3211 C.3     1  UNL1        0.0476
     14 C         144.0047  141.4327  162.7837 C.ar    1  UNL1       -0.0226
     15 C         144.4050  142.1090  161.5059 C.ar    1  UNL1       -0.0014
     16 C         143.5836  143.2432  160.9685 C.ar    1  UNL1        0.0368
     17 C         142.3619  143.7011  161.7088 C.ar    1  UNL1        0.1465
     18 C         141.9617  143.0248  162.9864 C.ar    1  UNL1        0.0343
     19 C         142.7831  141.8906  163.5239 C.ar    1  UNL1       -0.0032
     20 C         142.3830  141.2143  164.8015 C.3     1  UNL1        0.1199
     21 O         141.5405  144.8353  161.1714 O.3     1  UNL1       -0.4045
     22 C         140.1905  145.1269  161.7567 C.3     1  UNL1        0.5753
     23 F         138.8405  145.4184  162.3420 F       1  UNL1       -0.1328
     24 F         140.7974  146.1851  162.6294 F       1  UNL1       -0.1328
     25 F         139.5835  144.0686  160.8840 F       1  UNL1       -0.1328
     26 N         138.7626  138.5438  165.0381 N.3     1  UNL1       -0.2975
     27 H         139.1478  137.6213  164.8353 H       1  UNL1        0.1232
     28 C         139.2220  138.6746  162.4843 C.3     1  UNL1        0.1591
     29 C         139.0462  139.3697  161.1667 C.3     1  UNL1        0.1729
     30 O         138.2352  140.6288  161.0853 O.3     1  UNL1       -0.3511
     31 C         137.5999  141.1930  162.3215 C.3     1  UNL1        0.1437
     32 C         137.7757  140.4980  163.6391 C.3     1  UNL1        0.0503
     33 C         138.5868  139.2388  163.7205 C.3     1  UNL1        0.0865
     34 C         141.5122  137.4901  162.8044 C.3     1  UNL1        0.1742
     35 O         140.0331  137.4155  162.5657 O.3     1  UNL1       -0.3496
@<TRIPOS>BOND
     1    34    35    1
     2    35    28    1
     3    28    29    1
     4    29    30    1
     5    30    31    1
     6    31    32    1
     7    32    33    1
     8    33    26    1
     9     1    26    1
    10     1     2    1
    11     3     2    1
    12     3     4    1
    13     4     5    1
    14     5     6    1
    15     6     7    1
    16     7     9    1
    17     9    10    2
    18     9    11   am
    19    11    12    1
    20    12    13    1
    21    13    14    1
    22    14    15   ar
    23    15    16   ar
    24    16    17   ar
    25    17    21    1
    26    21    22    1
    27    22    23    1
    28    22    24    1
    29    22    25    1
    30    17    18   ar
    31    18    19   ar
    32    19    20    1
    33     7     8    1
    34    33    28    1
    35     8     1    1
    36     7     3    1
    37    20    11    1
    38    19    14   ar
    39    26    27    1
@<TRIPOS>MOLECULE
*****
 35 39 0 0 0
SMALL
GASTEIGER

@<TRIPOS>ATOM
      1 C         142.4040  139.0812  166.9547 C.3     1  UNL1        0.0545
      2 C         142.7181  139.5633  168.3399 C.3     1  UNL1        0.0162
      3 C         141.4310  139.9765  168.9899 C.3     1  UNL1        0.0095
      4 C         140.8295  140.5299  170.2477 C.3     1  UNL1        0.0005
      5 C         139.3482  140.6450  170.0416 C.3     1  UNL1        0.0005
      6 C         139.0341  140.1628  168.6564 C.3     1  UNL1        0.0087
      7 C         140.3213  139.7497  168.0064 C.3     1  UNL1        0.0704
      8 C         140.9227  139.1963  166.7486 C.3     1  UNL1        0.0243
      9 C         139.2117  139.5228  167.0229 C.2     1  UNL1        0.2250
     10 O         138.1060  138.5628  167.3479 O.2     1  UNL1       -0.2749
     11 N         139.2078  140.2561  165.7143 N.am    1  UNL1       -0.2751
     12 C         138.0982  140.0293  164.7308 C.3     1  UNL1        0.0984
     13 C         138.0943  140.7625  163.4223 C.3     1  UNL1        0.0476
     14 C         139.2000  141.7226  163.0972 C.ar    1  UNL1       -0.0226
     15 C         139.1961  142.4558  161.7886 C.ar    1  UNL1       -0.0014
     16 C         140.3018  143.4159  161.4636 C.ar    1  UNL1        0.0368
     17 C         141.4115  143.6428  162.4472 C.ar    1  UNL1        0.1465
     18 C         141.4153  142.9095  163.7557 C.ar    1  UNL1        0.0343
     19 C         140.3096  141.9494  164.0807 C.ar    1  UNL1       -0.0032
     20 C         140.3135  141.2162  165.3892 C.3     1  UNL1        0.1199
     21 O         142.5172  144.6028  162.1221 O.3     1  UNL1       -0.4045
     22 C         143.3863  145.1447  163.2181 C.3     1  UNL1        0.5753
     23 F         144.2555  145.6864  164.3140 F       1  UNL1       -0.1328
     24 F         144.5628  144.4084  162.6491 F       1  UNL1       -0.1328
     25 F         142.2099  145.8809  163.7872 F       1  UNL1       -0.1328
     26 N         143.3969  138.5730  165.9517 N.3     1  UNL1       -0.2975
     27 H         144.3132  138.6131  166.3980 H       1  UNL1        0.1232
     28 C         142.7407  138.7635  163.4451 C.3     1  UNL1        0.1591
     29 C         142.8771  139.4425  162.1145 C.3     1  UNL1        0.1729
     30 O         143.8061  140.6100  161.9600 O.3     1  UNL1       -0.3511
     31 C         144.5988  141.0985  163.1361 C.3     1  UNL1        0.1437
     32 C         144.4624  140.4195  164.4666 C.3     1  UNL1        0.0503
     33 C         143.5333  139.2520  164.6211 C.3     1  UNL1        0.0865
     34 C         140.3887  137.7036  163.1374 C.3     1  UNL1        0.1742
     35 O         141.8117  137.5960  163.5996 O.3     1  UNL1       -0.3496
@<TRIPOS>BOND
     1    34    35    1
     2    35    28    1
     3    28    29    1
     4    29    30    1
     5    30    31    1
     6    31    32    1
     7    32    33    1
     8    33    26    1
     9     1    26    1
    10     1     2    1
    11     3     2    1
    12     3     4    1
    13     4     5    1
    14     5     6    1
    15     6     7    1
    16     7     9    1
    17     9    10    2
    18     9    11   am
    19    11    12    1
    20    12    13    1
    21    13    14    1
    22    14    15   ar
    23    15    16   ar
    24    16    17   ar
    25    17    21    1
    26    21    22    1
    27    22    23    1
    28    22    24    1
    29    22    25    1
    30    17    18   ar
    31    18    19   ar
    32    19    20    1
    33     7     8    1
    34    33    28    1
    35     8     1    1
    36     7     3    1
    37    20    11    1
    38    19    14   ar
    39    26    27    1
@<TRIPOS>MOLECULE
*****
 35 39 0 0 0
SMALL
GASTEIGER

@<TRIPOS>ATOM
      1 C         142.1485  142.8403  161.4289 C.3     1  UNL1        0.0545
      2 C         142.1352  144.3390  161.4890 C.3     1  UNL1        0.0162
      3 C         140.7505  144.7756  161.8656 C.3     1  UNL1        0.0095
      4 C         139.8864  145.9716  162.1354 C.3     1  UNL1        0.0005
      5 C         138.5098  145.4819  162.4749 C.3     1  UNL1        0.0005
      6 C         138.5231  143.9832  162.4149 C.3     1  UNL1        0.0087
      7 C         139.9079  143.5466  162.0383 C.3     1  UNL1        0.0704
      8 C         140.7720  142.3506  161.7685 C.3     1  UNL1        0.0243
      9 C         139.0654  142.3177  162.2111 C.2     1  UNL1        0.2250
     10 O         138.2657  141.7884  161.0577 O.2     1  UNL1       -0.2749
     11 N         139.0225  141.6180  163.5373 N.am    1  UNL1       -0.2751
     12 C         138.1800  140.3891  163.7100 C.3     1  UNL1        0.0984
     13 C         138.1372  139.6895  165.0361 C.3     1  UNL1        0.0476
     14 C         138.9369  140.2189  166.1895 C.ar    1  UNL1       -0.0226
     15 C         138.8940  139.5192  167.5157 C.ar    1  UNL1       -0.0014
     16 C         139.6937  140.0485  168.6691 C.ar    1  UNL1        0.0368
     17 C         140.5362  141.2775  168.4963 C.ar    1  UNL1        0.1465
     18 C         140.5790  141.9771  167.1702 C.ar    1  UNL1        0.0343
     19 C         139.7794  141.4478  166.0168 C.ar    1  UNL1       -0.0032
     20 C         139.8222  142.1474  164.6907 C.3     1  UNL1        0.1199
     21 O         141.3359  141.8068  169.6497 O.3     1  UNL1       -0.4045
     22 C         142.7783  142.1711  169.4579 C.3     1  UNL1        0.5753
     23 F         144.2207  142.5353  169.2660 F       1  UNL1       -0.1328
     24 F         142.4915  143.5617  169.9415 F       1  UNL1       -0.1328
     25 F         143.0652  140.7805  168.9743 F       1  UNL1       -0.1328
     26 N         143.3308  141.9819  161.0891 N.3     1  UNL1       -0.2975
     27 H         142.9986  141.2652  160.4438 H       1  UNL1        0.1232
     28 C         143.7069  139.8668  162.5502 C.3     1  UNL1        0.1591
     29 C         144.4553  139.1561  163.6386 C.3     1  UNL1        0.1729
     30 O         145.5762  139.8498  164.3544 O.3     1  UNL1       -0.3511
     31 C         145.9486  141.2543  163.9818 C.3     1  UNL1        0.1437
     32 C         145.2002  141.9650  162.8933 C.3     1  UNL1        0.0503
     33 C         144.0793  141.2712  162.1775 C.3     1  UNL1        0.0865
     34 C         141.3593  138.7543  162.5894 C.3     1  UNL1        0.1742
     35 O         142.5860  139.1731  161.8344 O.3     1  UNL1       -0.3496
@<TRIPOS>BOND
     1    34    35    1
     2    35    28    1
     3    28    29    1
     4    29    30    1
     5    30    31    1
     6    31    32    1
     7    32    33    1
     8    33    26    1
     9     1    26    1
    10     1     2    1
    11     3     2    1
    12     3     4    1
    13     4     5    1
    14     5     6    1
    15     6     7    1
    16     7     9    1
    17     9    10    2
    18     9    11   am
    19    11    12    1
    20    12    13    1
    21    13    14    1
    22    14    15   ar
    23    15    16   ar
    24    16    17   ar
    25    17    21    1
    26    21    22    1
    27    22    23    1
    28    22    24    1
    29    22    25    1
    30    17    18   ar
    31    18    19   ar
    32    19    20    1
    33     7     8    1
    34    33    28    1
    35     8     1    1
    36     7     3    1
    37    20    11    1
    38    19    14   ar
    39    26    27    1
