@<TRIPOS>MOLECULE
*****
 28 31 0 0 0
SMALL
GASTEIGER

@<TRIPOS>ATOM
      1 C         139.7476  141.0572  169.4652 C.ar    1  UNL1        0.0783
      2 C         138.7607  139.9437  169.6553 C.ar    1  UNL1        0.1044
      3 N         138.2174  139.2117  168.4643 N.ar    1  UNL1       -0.2375
      4 C         138.6608  139.5930  167.0830 C.ar    1  UNL1        0.1071
      5 C         139.6477  140.7065  166.8928 C.ar    1  UNL1        0.0302
      6 C         140.2652  141.3011  165.6619 C.ar    1  UNL1        0.0090
      7 C         141.1902  142.4006  166.0923 C.ar    1  UNL1        0.0295
      8 S         141.1444  142.4857  167.5892 S.2     1  UNL1       -0.0867
      9 C         140.1911  141.4386  168.0840 C.ar    1  UNL1        0.0373
     10 C         142.0160  143.2637  165.1850 C.ar    1  UNL1        0.0060
     11 C         141.3528  144.3006  164.3277 C.ar    1  UNL1        0.0005
     12 C         142.1787  145.1637  163.4204 C.ar    1  UNL1        0.0000
     13 C         143.6678  144.9899  163.3705 C.ar    1  UNL1        0.0000
     14 C         144.3310  143.9530  164.2278 C.ar    1  UNL1        0.0000
     15 C         143.5051  143.0899  165.1351 C.ar    1  UNL1        0.0005
     16 N         139.6587  143.0755  171.0988 N.am    1  UNL1       -0.3253
     17 C         140.2910  141.7893  170.6563 C.2     1  UNL1        0.2448
     18 O         141.4669  141.2352  171.4050 O.2     1  UNL1       -0.2703
     19 H         140.0153  143.5560  171.8805 H       1  UNL1        0.1453
     20 H         138.8869  143.4392  170.6074 H       1  UNL1        0.1453
     21 S         138.1173  138.8608  165.8919 S.3     1  UNL1       -0.0944
     22 C         139.0411  138.4267  164.7927 C.3     1  UNL1        0.0691
     23 C         140.2437  137.5887  165.1110 C.3     1  UNL1        0.0140
     24 C         141.1675  137.1545  164.0119 C.3     1  UNL1        0.0180
     25 C         140.8887  137.5585  162.5945 C.3     1  UNL1        0.0686
     26 N         139.6860  138.3966  162.2762 N.3     1  UNL1       -0.2967
     27 C         138.7622  138.8307  163.3753 C.3     1  UNL1        0.0798
     28 H         139.1238  137.8645  161.6120 H       1  UNL1        0.1233
@<TRIPOS>BOND
     1    16    17   am
     2    17    18    2
     3    17     1    1
     4     1     2   ar
     5     2     3   ar
     6     3     4   ar
     7     4    21    1
     8    21    22    1
     9    22    23    1
    10    23    24    1
    11    24    25    1
    12    25    26    1
    13    26    27    1
    14     4     5   ar
    15     5     6   ar
    16     6     7   ar
    17     7    10    1
    18    10    11   ar
    19    11    12   ar
    20    12    13   ar
    21    13    14   ar
    22    14    15   ar
    23     7     8   ar
    24     8     9   ar
    25     9     1   ar
    26    27    22    1
    27     9     5   ar
    28    15    10   ar
    29    16    19    1
    30    16    20    1
    31    26    28    1
@<TRIPOS>MOLECULE
*****
 28 31 0 0 0
SMALL
GASTEIGER

@<TRIPOS>ATOM
      1 C         141.3893  140.8184  169.5018 C.ar    1  UNL1        0.0783
      2 C         142.1774  139.5896  169.8463 C.ar    1  UNL1        0.1044
      3 N         142.8964  138.8331  168.7689 N.ar    1  UNL1       -0.2375
      4 C         142.8273  139.3056  167.3469 C.ar    1  UNL1        0.1071
      5 C         142.0392  140.5345  167.0024 C.ar    1  UNL1        0.0302
      6 C         141.7907  141.2349  165.6994 C.ar    1  UNL1        0.0090
      7 C         140.9181  142.4242  165.9716 C.ar    1  UNL1        0.0295
      8 S         140.6273  142.4588  167.4428 S.2     1  UNL1       -0.0867
      9 C         141.3202  141.2909  168.0798 C.ar    1  UNL1        0.0373
     10 C         140.4232  143.4065  164.9517 C.ar    1  UNL1        0.0060
     11 C         138.9498  143.5769  164.7278 C.ar    1  UNL1        0.0005
     12 C         138.4550  144.5592  163.7078 C.ar    1  UNL1        0.0000
     13 C         139.4334  145.3711  162.9119 C.ar    1  UNL1        0.0000
     14 C         140.9068  145.2007  163.1359 C.ar    1  UNL1        0.0000
     15 C         141.4016  144.2183  164.1558 C.ar    1  UNL1        0.0005
     16 N         139.1717  141.6390  170.5784 N.am    1  UNL1       -0.3253
     17 C         140.6703  141.5749  170.5792 C.2     1  UNL1        0.2448
     18 O         141.4500  142.2673  171.6576 O.2     1  UNL1       -0.2703
     19 H         138.6998  142.1354  171.2855 H       1  UNL1        0.1453
     20 H         138.6600  141.1846  169.8706 H       1  UNL1        0.1453
     21 S         143.5463  138.5491  166.2695 S.3     1  UNL1       -0.0944
     22 C         142.8652  138.2786  164.9607 C.3     1  UNL1        0.0691
     23 C         141.5800  137.5057  164.9297 C.3     1  UNL1        0.0140
     24 C         140.8989  137.2352  163.6210 C.3     1  UNL1        0.0180
     25 C         141.5030  137.7375  162.3432 C.3     1  UNL1        0.0686
     26 N         142.7882  138.5104  162.3742 N.3     1  UNL1       -0.2967
     27 C         143.4693  138.7809  163.6829 C.3     1  UNL1        0.0798
     28 H         142.5966  139.4175  161.9489 H       1  UNL1        0.1233
@<TRIPOS>BOND
     1    16    17   am
     2    17    18    2
     3    17     1    1
     4     1     2   ar
     5     2     3   ar
     6     3     4   ar
     7     4    21    1
     8    21    22    1
     9    22    23    1
    10    23    24    1
    11    24    25    1
    12    25    26    1
    13    26    27    1
    14     4     5   ar
    15     5     6   ar
    16     6     7   ar
    17     7    10    1
    18    10    11   ar
    19    11    12   ar
    20    12    13   ar
    21    13    14   ar
    22    14    15   ar
    23     7     8   ar
    24     8     9   ar
    25     9     1   ar
    26    27    22    1
    27     9     5   ar
    28    15    10   ar
    29    16    19    1
    30    16    20    1
    31    26    28    1
@<TRIPOS>MOLECULE
*****
 28 31 0 0 0
SMALL
GASTEIGER

@<TRIPOS>ATOM
      1 C         140.2287  140.6701  169.8181 C.ar    1  UNL1        0.0783
      2 C         138.8696  140.0724  170.0317 C.ar    1  UNL1        0.1044
      3 N         138.1462  139.4262  168.8877 N.ar    1  UNL1       -0.2375
      4 C         138.7819  139.3777  167.5298 C.ar    1  UNL1        0.1071
      5 C         140.1410  139.9753  167.3162 C.ar    1  UNL1        0.0302
      6 C         141.0127  140.0771  166.0998 C.ar    1  UNL1        0.0090
      7 C         142.2749  140.7863  166.4922 C.ar    1  UNL1        0.0295
      8 S         142.1832  141.1228  167.9511 S.2     1  UNL1       -0.0867
      9 C         140.8644  140.6216  168.4604 C.ar    1  UNL1        0.0373
     10 C         143.4266  141.1034  165.5850 C.ar    1  UNL1        0.0060
     11 C         144.1136  140.0026  164.8323 C.ar    1  UNL1        0.0005
     12 C         145.2653  140.3198  163.9251 C.ar    1  UNL1        0.0000
     13 C         145.7301  141.7375  163.7705 C.ar    1  UNL1        0.0000
     14 C         145.0431  142.8383  164.5232 C.ar    1  UNL1        0.0000
     15 C         143.8914  142.5211  165.4304 C.ar    1  UNL1        0.0005
     16 N         142.2164  140.7063  171.4908 N.am    1  UNL1       -0.3253
     17 C         140.9521  141.3164  170.9623 C.2     1  UNL1        0.2448
     18 O         140.4111  142.5727  171.5780 O.2     1  UNL1       -0.2703
     19 H         142.6912  141.1304  172.2417 H       1  UNL1        0.1453
     20 H         142.5714  139.8817  171.0867 H       1  UNL1        0.1453
     21 S         138.0584  138.7314  166.3857 S.3     1  UNL1       -0.0944
     22 C         138.2200  139.2710  164.9955 C.3     1  UNL1        0.0691
     23 C         138.7410  138.3850  163.9030 C.3     1  UNL1        0.0140
     24 C         138.9025  138.9244  162.5127 C.3     1  UNL1        0.0180
     25 C         138.5431  140.3500  162.2150 C.3     1  UNL1        0.0686
     26 N         138.0220  141.2360  163.3075 N.3     1  UNL1       -0.2967
     27 C         137.8605  140.6965  164.6977 C.3     1  UNL1        0.0798
     28 H         137.1025  141.5615  163.0092 H       1  UNL1        0.1233
@<TRIPOS>BOND
     1    16    17   am
     2    17    18    2
     3    17     1    1
     4     1     2   ar
     5     2     3   ar
     6     3     4   ar
     7     4    21    1
     8    21    22    1
     9    22    23    1
    10    23    24    1
    11    24    25    1
    12    25    26    1
    13    26    27    1
    14     4     5   ar
    15     5     6   ar
    16     6     7   ar
    17     7    10    1
    18    10    11   ar
    19    11    12   ar
    20    12    13   ar
    21    13    14   ar
    22    14    15   ar
    23     7     8   ar
    24     8     9   ar
    25     9     1   ar
    26    27    22    1
    27     9     5   ar
    28    15    10   ar
    29    16    19    1
    30    16    20    1
    31    26    28    1
@<TRIPOS>MOLECULE
*****
 28 31 0 0 0
SMALL
GASTEIGER

@<TRIPOS>ATOM
      1 C         141.7414  140.8678  169.4242 C.ar    1  UNL1        0.0783
      2 C         142.6127  139.6800  169.7068 C.ar    1  UNL1        0.1044
      3 N         143.1241  138.8388  168.5752 N.ar    1  UNL1       -0.2375
      4 C         142.7642  139.1853  167.1608 C.ar    1  UNL1        0.1071
      5 C         141.8929  140.3731  166.8781 C.ar    1  UNL1        0.0302
      6 C         141.3749  140.9556  165.5966 C.ar    1  UNL1        0.0090
      7 C         140.5434  142.1569  165.9362 C.ar    1  UNL1        0.0295
      8 S         140.5474  142.3168  167.4277 S.2     1  UNL1       -0.0867
      9 C         141.3815  141.2144  168.0098 C.ar    1  UNL1        0.0373
     10 C         139.8325  143.0428  164.9565 C.ar    1  UNL1        0.0060
     11 C         140.5610  144.1850  164.3125 C.ar    1  UNL1        0.0005
     12 C         139.8500  145.0708  163.3327 C.ar    1  UNL1        0.0000
     13 C         138.4107  144.8145  162.9969 C.ar    1  UNL1        0.0000
     14 C         137.6823  143.6723  163.6409 C.ar    1  UNL1        0.0000
     15 C         138.3932  142.7865  164.6207 C.ar    1  UNL1        0.0005
     16 N         142.1918  142.4733  171.4165 N.am    1  UNL1       -0.3253
     17 C         141.2299  141.7091  170.5559 C.2     1  UNL1        0.2448
     18 O         139.7566  141.7861  170.8269 O.2     1  UNL1       -0.2703
     19 H         141.8561  143.0255  172.1593 H       1  UNL1        0.1453
     20 H         143.1588  142.4228  171.2386 H       1  UNL1        0.1453
     21 S         143.2757  138.3439  166.0291 S.3     1  UNL1       -0.0944
     22 C         143.6785  138.9900  164.7367 C.3     1  UNL1        0.0691
     23 C         144.7663  140.0227  164.7216 C.3     1  UNL1        0.0140
     24 C         145.1692  140.6688  163.4293 C.3     1  UNL1        0.0180
     25 C         144.4842  140.2822  162.1520 C.3     1  UNL1        0.0686
     26 N         143.3964  139.2495  162.1671 N.3     1  UNL1       -0.2967
     27 C         142.9936  138.6034  163.4595 C.3     1  UNL1        0.0798
     28 H         143.6938  138.4995  161.5431 H       1  UNL1        0.1233
@<TRIPOS>BOND
     1    16    17   am
     2    17    18    2
     3    17     1    1
     4     1     2   ar
     5     2     3   ar
     6     3     4   ar
     7     4    21    1
     8    21    22    1
     9    22    23    1
    10    23    24    1
    11    24    25    1
    12    25    26    1
    13    26    27    1
    14     4     5   ar
    15     5     6   ar
    16     6     7   ar
    17     7    10    1
    18    10    11   ar
    19    11    12   ar
    20    12    13   ar
    21    13    14   ar
    22    14    15   ar
    23     7     8   ar
    24     8     9   ar
    25     9     1   ar
    26    27    22    1
    27     9     5   ar
    28    15    10   ar
    29    16    19    1
    30    16    20    1
    31    26    28    1
@<TRIPOS>MOLECULE
*****
 28 31 0 0 0
SMALL
GASTEIGER

@<TRIPOS>ATOM
      1 C         139.2679  138.2635  164.6309 C.ar    1  UNL1        0.0783
      2 C         138.4379  137.5257  165.6392 C.ar    1  UNL1        0.1044
      3 N         138.2373  138.1002  167.0101 N.ar    1  UNL1       -0.2375
      4 C         138.8667  139.4126  167.3729 C.ar    1  UNL1        0.1071
      5 C         139.6967  140.1504  166.3646 C.ar    1  UNL1        0.0302
      6 C         140.4361  141.4537  166.4337 C.ar    1  UNL1        0.0090
      7 C         141.0937  141.6845  165.1055 C.ar    1  UNL1        0.0295
      8 S         140.7607  140.5240  164.2154 S.2     1  UNL1       -0.0867
      9 C         139.8973  139.5758  164.9935 C.ar    1  UNL1        0.0373
     10 C         141.9363  142.8682  164.7327 C.ar    1  UNL1        0.0060
     11 C         143.3985  142.8830  165.0670 C.ar    1  UNL1        0.0005
     12 C         144.2410  144.0668  164.6941 C.ar    1  UNL1        0.0000
     13 C         143.6215  145.2356  163.9870 C.ar    1  UNL1        0.0000
     14 C         142.1593  145.2207  163.6527 C.ar    1  UNL1        0.0000
     15 C         141.3167  144.0370  164.0256 C.ar    1  UNL1        0.0005
     16 N         138.3461  137.7129  162.2650 N.am    1  UNL1       -0.3253
     17 C         139.4684  137.6889  163.2599 C.2     1  UNL1        0.2448
     18 O         140.7915  137.0903  162.8837 O.2     1  UNL1       -0.2703
     19 H         138.4777  137.3358  161.3652 H       1  UNL1        0.1453
     20 H         137.4778  138.1057  162.5119 H       1  UNL1        0.1453
     21 S         138.6661  139.9871  168.7439 S.3     1  UNL1       -0.0944
     22 C         139.8371  140.5289  169.5088 C.3     1  UNL1        0.0691
     23 C         141.0777  139.7007  169.6668 C.3     1  UNL1        0.0140
     24 C         142.2488  140.2424  170.4317 C.3     1  UNL1        0.0180
     25 C         142.1793  141.6123  171.0386 C.3     1  UNL1        0.0686
     26 N         140.9388  142.4406  170.8806 N.3     1  UNL1       -0.2967
     27 C         139.7677  141.8989  170.1157 C.3     1  UNL1        0.0798
     28 H         141.2188  143.3049  170.4171 H       1  UNL1        0.1233
@<TRIPOS>BOND
     1    16    17   am
     2    17    18    2
     3    17     1    1
     4     1     2   ar
     5     2     3   ar
     6     3     4   ar
     7     4    21    1
     8    21    22    1
     9    22    23    1
    10    23    24    1
    11    24    25    1
    12    25    26    1
    13    26    27    1
    14     4     5   ar
    15     5     6   ar
    16     6     7   ar
    17     7    10    1
    18    10    11   ar
    19    11    12   ar
    20    12    13   ar
    21    13    14   ar
    22    14    15   ar
    23     7     8   ar
    24     8     9   ar
    25     9     1   ar
    26    27    22    1
    27     9     5   ar
    28    15    10   ar
    29    16    19    1
    30    16    20    1
    31    26    28    1
@<TRIPOS>MOLECULE
*****
 28 31 0 0 0
SMALL
GASTEIGER

@<TRIPOS>ATOM
      1 C         139.0111  139.0846  164.2547 C.ar    1  UNL1        0.0783
      2 C         138.2030  139.3503  163.0193 C.ar    1  UNL1        0.1044
      3 N         137.8734  140.7602  162.6275 N.ar    1  UNL1       -0.2375
      4 C         138.3520  141.9045  163.4711 C.ar    1  UNL1        0.1071
      5 C         139.1601  141.6388  164.7066 C.ar    1  UNL1        0.0302
      6 C         139.7647  142.5569  165.7271 C.ar    1  UNL1        0.0090
      7 C         140.4680  141.7144  166.7496 C.ar    1  UNL1        0.0295
      8 S         140.2980  140.2756  166.3610 S.2     1  UNL1       -0.0867
      9 C         139.4897  140.2288  165.0984 C.ar    1  UNL1        0.0373
     10 C         141.2109  142.2216  167.9500 C.ar    1  UNL1        0.0060
     11 C         140.5178  143.1087  168.9412 C.ar    1  UNL1        0.0005
     12 C         141.2608  143.6159  170.1416 C.ar    1  UNL1        0.0000
     13 C         142.6967  143.2359  170.3507 C.ar    1  UNL1        0.0000
     14 C         143.3898  142.3488  169.3594 C.ar    1  UNL1        0.0000
     15 C         142.6468  141.8416  168.1591 C.ar    1  UNL1        0.0005
     16 N         140.5697  137.0119  164.0988 N.am    1  UNL1       -0.3253
     17 C         139.3407  137.6747  164.6465 C.2     1  UNL1        0.2448
     18 O         138.4411  136.9276  165.5861 O.2     1  UNL1       -0.2703
     19 H         140.7860  136.0865  164.3559 H       1  UNL1        0.1453
     20 H         141.1601  137.5022  163.4821 H       1  UNL1        0.1453
     21 S         138.0223  143.3144  163.0793 S.3     1  UNL1       -0.0944
     22 C         138.9307  144.0673  162.1530 C.3     1  UNL1        0.0691
     23 C         139.3445  143.4557  160.8473 C.3     1  UNL1        0.0140
     24 C         140.2528  144.2085  159.9209 C.3     1  UNL1        0.0180
     25 C         140.7475  145.5728  160.3003 C.3     1  UNL1        0.0686
     26 N         140.3337  146.1844  161.6060 N.3     1  UNL1       -0.2967
     27 C         139.4254  145.4316  162.5323 C.3     1  UNL1        0.0798
     28 H         139.8657  147.0631  161.3843 H       1  UNL1        0.1233
@<TRIPOS>BOND
     1    16    17   am
     2    17    18    2
     3    17     1    1
     4     1     2   ar
     5     2     3   ar
     6     3     4   ar
     7     4    21    1
     8    21    22    1
     9    22    23    1
    10    23    24    1
    11    24    25    1
    12    25    26    1
    13    26    27    1
    14     4     5   ar
    15     5     6   ar
    16     6     7   ar
    17     7    10    1
    18    10    11   ar
    19    11    12   ar
    20    12    13   ar
    21    13    14   ar
    22    14    15   ar
    23     7     8   ar
    24     8     9   ar
    25     9     1   ar
    26    27    22    1
    27     9     5   ar
    28    15    10   ar
    29    16    19    1
    30    16    20    1
    31    26    28    1
@<TRIPOS>MOLECULE
*****
 28 31 0 0 0
SMALL
GASTEIGER

@<TRIPOS>ATOM
      1 C         139.7137  143.8135  161.5728 C.ar    1  UNL1        0.0783
      2 C         138.9714  143.0758  160.4981 C.ar    1  UNL1        0.1044
      3 N         138.4719  141.6844  160.7514 N.ar    1  UNL1       -0.2375
      4 C         138.7146  141.0304  162.0794 C.ar    1  UNL1        0.1071
      5 C         139.4569  141.7680  163.1541 C.ar    1  UNL1        0.0302
      6 C         139.8434  141.3840  164.5516 C.ar    1  UNL1        0.0090
      7 C         140.5818  142.5382  165.1620 C.ar    1  UNL1        0.0295
      8 S         140.6517  143.6355  164.1418 S.2     1  UNL1       -0.0867
      9 C         139.9564  143.1596  162.9007 C.ar    1  UNL1        0.0373
     10 C         141.1505  142.5865  166.5492 C.ar    1  UNL1        0.0060
     11 C         140.2741  142.9646  167.7063 C.ar    1  UNL1        0.0005
     12 C         140.8429  143.0129  169.0935 C.ar    1  UNL1        0.0000
     13 C         142.2880  142.6832  169.3235 C.ar    1  UNL1        0.0000
     14 C         143.1644  142.3051  168.1664 C.ar    1  UNL1        0.0000
     15 C         142.5956  142.2568  166.7792 C.ar    1  UNL1        0.0005
     16 N         141.6499  145.4308  160.9521 N.am    1  UNL1       -0.3253
     17 C         140.2132  145.2050  161.3195 C.2     1  UNL1        0.2448
     18 O         139.2760  146.3707  161.4335 O.2     1  UNL1       -0.2703
     19 H         141.9777  146.3441  160.7859 H       1  UNL1        0.1453
     20 H         142.2650  144.6658  160.8773 H       1  UNL1        0.1453
     21 S         138.2150  139.6389  162.3326 S.3     1  UNL1       -0.0944
     22 C         139.1227  138.6170  162.9506 C.3     1  UNL1        0.0691
     23 C         138.8766  138.1459  164.3533 C.3     1  UNL1        0.0140
     24 C         139.7842  137.1240  164.9713 C.3     1  UNL1        0.0180
     25 C         140.9379  136.5733  164.1866 C.3     1  UNL1        0.0686
     26 N         141.1840  137.0444  162.7840 N.3     1  UNL1       -0.2967
     27 C         140.2764  138.0662  162.1659 C.3     1  UNL1        0.0798
     28 H         141.1487  136.2190  162.1857 H       1  UNL1        0.1233
@<TRIPOS>BOND
     1    16    17   am
     2    17    18    2
     3    17     1    1
     4     1     2   ar
     5     2     3   ar
     6     3     4   ar
     7     4    21    1
     8    21    22    1
     9    22    23    1
    10    23    24    1
    11    24    25    1
    12    25    26    1
    13    26    27    1
    14     4     5   ar
    15     5     6   ar
    16     6     7   ar
    17     7    10    1
    18    10    11   ar
    19    11    12   ar
    20    12    13   ar
    21    13    14   ar
    22    14    15   ar
    23     7     8   ar
    24     8     9   ar
    25     9     1   ar
    26    27    22    1
    27     9     5   ar
    28    15    10   ar
    29    16    19    1
    30    16    20    1
    31    26    28    1
@<TRIPOS>MOLECULE
*****
 28 31 0 0 0
SMALL
GASTEIGER

@<TRIPOS>ATOM
      1 C         138.5128  141.5719  158.7796 C.ar    1  UNL1        0.0783
      2 C         138.8930  142.8926  158.1785 C.ar    1  UNL1        0.1044
      3 N         139.4290  143.9877  159.0521 N.ar    1  UNL1       -0.2375
      4 C         139.5849  143.7623  160.5269 C.ar    1  UNL1        0.1071
      5 C         139.2047  142.4417  161.1280 C.ar    1  UNL1        0.0302
      6 C         139.2472  141.9312  162.5378 C.ar    1  UNL1        0.0090
      7 C         138.7374  140.5205  162.5355 C.ar    1  UNL1        0.0295
      8 S         138.3798  140.1591  161.1243 S.2     1  UNL1       -0.0867
      9 C         138.6687  141.3465  160.2544 C.ar    1  UNL1        0.0373
     10 C         138.6079  139.6278  163.7340 C.ar    1  UNL1        0.0060
     11 C         138.9368  138.1687  163.6215 C.ar    1  UNL1        0.0005
     12 C         138.8073  137.2761  164.8201 C.ar    1  UNL1        0.0000
     13 C         138.3488  137.8426  166.1311 C.ar    1  UNL1        0.0000
     14 C         138.0198  139.3017  166.2436 C.ar    1  UNL1        0.0000
     15 C         138.1493  140.1943  165.0450 C.ar    1  UNL1        0.0005
     16 N         136.6153  140.6071  157.2902 N.am    1  UNL1       -0.3253
     17 C         137.9768  140.4767  157.9060 C.2     1  UNL1        0.2448
     18 O         138.8023  139.2511  157.6482 O.2     1  UNL1       -0.2703
     19 H         136.2634  139.8883  156.7168 H       1  UNL1        0.1453
     20 H         136.0735  141.4116  157.4594 H       1  UNL1        0.1453
     21 S         140.1210  144.8576  161.4005 S.3     1  UNL1       -0.0944
     22 C         141.4848  144.7297  162.0117 C.3     1  UNL1        0.0691
     23 C         141.7599  145.3221  163.3620 C.3     1  UNL1        0.0140
     24 C         143.1237  145.1943  163.9734 C.3     1  UNL1        0.0180
     25 C         144.2123  144.4741  163.2344 C.3     1  UNL1        0.0686
     26 N         143.9372  143.8816  161.8841 N.3     1  UNL1       -0.2967
     27 C         142.5734  144.0094  161.2728 C.3     1  UNL1        0.0798
     28 H         144.1360  142.8836  161.9544 H       1  UNL1        0.1233
@<TRIPOS>BOND
     1    16    17   am
     2    17    18    2
     3    17     1    1
     4     1     2   ar
     5     2     3   ar
     6     3     4   ar
     7     4    21    1
     8    21    22    1
     9    22    23    1
    10    23    24    1
    11    24    25    1
    12    25    26    1
    13    26    27    1
    14     4     5   ar
    15     5     6   ar
    16     6     7   ar
    17     7    10    1
    18    10    11   ar
    19    11    12   ar
    20    12    13   ar
    21    13    14   ar
    22    14    15   ar
    23     7     8   ar
    24     8     9   ar
    25     9     1   ar
    26    27    22    1
    27     9     5   ar
    28    15    10   ar
    29    16    19    1
    30    16    20    1
    31    26    28    1
@<TRIPOS>MOLECULE
*****
 28 31 0 0 0
SMALL
GASTEIGER

@<TRIPOS>ATOM
      1 C         140.5471  144.6852  162.2287 C.ar    1  UNL1        0.0783
      2 C         141.4879  144.7072  161.0606 C.ar    1  UNL1        0.1044
      3 N         142.7007  143.8247  161.0576 N.ar    1  UNL1       -0.2375
      4 C         142.9729  142.9200  162.2228 C.ar    1  UNL1        0.1071
      5 C         142.0321  142.8980  163.3909 C.ar    1  UNL1        0.0302
      6 C         142.0397  142.1164  164.6711 C.ar    1  UNL1        0.0090
      7 C         140.8316  142.5159  165.4653 C.ar    1  UNL1        0.0295
      8 S         140.0772  143.5444  164.6759 S.2     1  UNL1       -0.0867
      9 C         140.8192  143.7805  163.3938 C.ar    1  UNL1        0.0373
     10 C         140.4455  141.9809  166.8124 C.ar    1  UNL1        0.0060
     11 C         139.8668  140.6024  166.9342 C.ar    1  UNL1        0.0005
     12 C         139.4807  140.0675  168.2814 C.ar    1  UNL1        0.0000
     13 C         139.6734  140.9109  169.5067 C.ar    1  UNL1        0.0000
     14 C         140.2521  142.2894  169.3849 C.ar    1  UNL1        0.0000
     15 C         140.6381  142.8244  168.0377 C.ar    1  UNL1        0.0005
     16 N         139.4791  147.0423  161.9978 N.am    1  UNL1       -0.3253
     17 C         139.3342  145.5677  162.2316 C.2     1  UNL1        0.2448
     18 O         137.9764  144.9757  162.4683 O.2     1  UNL1       -0.2703
     19 H         138.6831  147.6216  161.9997 H       1  UNL1        0.1453
     20 H         140.3703  147.4309  161.8425 H       1  UNL1        0.1453
     21 S         144.1858  142.0374  162.2198 S.3     1  UNL1       -0.0944
     22 C         144.0702  140.6053  161.7892 C.3     1  UNL1        0.0691
     23 C         144.0252  139.5142  162.8176 C.3     1  UNL1        0.0140
     24 C         143.9096  138.0820  162.3870 C.3     1  UNL1        0.0180
     25 C         143.8389  137.7409  160.9281 C.3     1  UNL1        0.0686
     26 N         143.8838  138.8319  159.8997 N.3     1  UNL1       -0.2967
     27 C         143.9995  140.2641  160.3302 C.3     1  UNL1        0.0798
     28 H         143.0258  138.7571  159.3533 H       1  UNL1        0.1233
@<TRIPOS>BOND
     1    16    17   am
     2    17    18    2
     3    17     1    1
     4     1     2   ar
     5     2     3   ar
     6     3     4   ar
     7     4    21    1
     8    21    22    1
     9    22    23    1
    10    23    24    1
    11    24    25    1
    12    25    26    1
    13    26    27    1
    14     4     5   ar
    15     5     6   ar
    16     6     7   ar
    17     7    10    1
    18    10    11   ar
    19    11    12   ar
    20    12    13   ar
    21    13    14   ar
    22    14    15   ar
    23     7     8   ar
    24     8     9   ar
    25     9     1   ar
    26    27    22    1
    27     9     5   ar
    28    15    10   ar
    29    16    19    1
    30    16    20    1
    31    26    28    1
