@<TRIPOS>MOLECULE
*****
 34 37 0 0 0
SMALL
GASTEIGER

@<TRIPOS>ATOM
      1 N         139.6323  140.4426  167.7670 N.ar    1  UNL1       -0.2380
      2 N         140.4355  141.3681  166.9020 N.ar    1  UNL1       -0.1680
      3 C         140.0492  141.1199  165.4740 C.ar    1  UNL1        0.1079
      4 C         139.0072  140.0410  165.4565 C.ar    1  UNL1        0.1031
      5 C         138.7495  139.6224  166.8736 C.ar    1  UNL1        0.1281
      6 N         137.7794  138.5687  167.3192 N.pl3   1  UNL1       -0.3427
      7 H         137.2415  138.0818  166.6538 H       1  UNL1        0.1437
      8 H         137.6806  138.3639  168.2771 H       1  UNL1        0.1437
      9 C         140.6070  141.8265  164.2741 C.ar    1  UNL1        0.0197
     10 C         141.9291  141.4064  163.7037 C.ar    1  UNL1        0.0031
     11 C         142.4868  142.1131  162.5039 C.ar    1  UNL1        0.0193
     12 C         141.7224  143.2398  161.8745 C.ar    1  UNL1        0.0844
     13 N         142.2802  143.9465  160.6747 N.ar    1  UNL1       -0.2117
     14 C         141.5158  145.0733  160.0453 C.ar    1  UNL1        0.2247
     15 C         140.1936  145.4934  160.6158 C.ar    1  UNL1        0.0577
     16 C         139.6359  144.7867  161.8156 C.ar    1  UNL1        0.0063
     17 C         140.4003  143.6600  162.4450 C.ar    1  UNL1        0.0180
     18 C         139.8426  142.9533  163.6448 C.ar    1  UNL1        0.0031
     19 O         142.0735  145.7799  158.8455 O.3     1  UNL1       -0.4640
     20 C         141.2659  145.8683  157.5845 C.3     1  UNL1        0.1678
     21 C         141.1058  145.5787  156.1215 C.3     1  UNL1        0.0473
     22 C         140.0274  146.3111  156.8635 C.3     1  UNL1        0.0473
     23 C         138.3400  139.4794  164.2361 C.2     1  UNL1        0.2470
     24 N         137.3553  140.3115  163.4695 N.am    1  UNL1       -0.3252
     25 O         138.6576  138.0853  163.7823 O.2     1  UNL1       -0.2702
     26 H         137.1468  141.2264  163.7673 H       1  UNL1        0.1453
     27 H         136.9174  139.9428  162.6685 H       1  UNL1        0.1453
     28 C         139.6999  140.3530  169.2628 C.3     1  UNL1        0.1311
     29 C         141.6359  139.5963  169.6863 C.3     1  UNL1        0.0045
     30 C         140.9048  140.8701  169.9914 C.3     1  UNL1        0.0497
     31 C         140.1738  142.1437  170.2966 C.3     1  UNL1        0.0045
     32 C         142.1098  141.3871  170.7201 C.3     1  UNL1        0.1389
     33 O         141.9388  142.2134  171.9602 O.3     1  UNL1       -0.3819
     34 H         141.5136  143.0549  171.7320 H       1  UNL1        0.2104
@<TRIPOS>BOND
     1    29    30    1
     2    30    31    1
     3    30    32    1
     4    32    33    1
     5    30    28    1
     6    28     1    1
     7     1     2   ar
     8     2     3   ar
     9     3     9    1
    10     9    10   ar
    11    10    11   ar
    12    11    12   ar
    13    12    13   ar
    14    13    14   ar
    15    14    19    1
    16    19    20    1
    17    20    21    1
    18    21    22    1
    19    14    15   ar
    20    15    16   ar
    21    16    17   ar
    22    17    18   ar
    23     3     4   ar
    24     4    23    1
    25    23    24   am
    26    23    25    2
    27     4     5   ar
    28     5     6    1
    29     5     1   ar
    30    18     9   ar
    31    17    12   ar
    32    22    20    1
    33    33    34    1
    34    24    26    1
    35    24    27    1
    36     6     7    1
    37     6     8    1
@<TRIPOS>MOLECULE
*****
 34 37 0 0 0
SMALL
GASTEIGER

@<TRIPOS>ATOM
      1 N         139.6048  140.6412  167.4816 N.ar    1  UNL1       -0.2380
      2 N         140.1703  141.7927  166.7043 N.ar    1  UNL1       -0.1680
      3 C         139.6733  141.6879  165.2929 C.ar    1  UNL1        0.1079
      4 C         138.8007  140.4716  165.1979 C.ar    1  UNL1        0.1031
      5 C         138.7583  139.8247  166.5505 C.ar    1  UNL1        0.1281
      6 N         138.0021  138.5798  166.9092 N.pl3   1  UNL1       -0.3427
      7 H         137.4715  138.1118  166.2246 H       1  UNL1        0.1437
      8 H         138.0364  138.2309  167.8291 H       1  UNL1        0.1437
      9 C         139.9930  142.6335  164.1731 C.ar    1  UNL1        0.0197
     10 C         139.6329  144.0848  164.2912 C.ar    1  UNL1        0.0031
     11 C         139.9526  145.0303  163.1715 C.ar    1  UNL1        0.0193
     12 C         140.6323  144.5244  161.9337 C.ar    1  UNL1        0.0844
     13 N         140.9519  145.4700  160.8139 N.ar    1  UNL1       -0.2117
     14 C         141.6316  144.9641  159.5761 C.ar    1  UNL1        0.2247
     15 C         141.9917  143.5127  159.4581 C.ar    1  UNL1        0.0577
     16 C         141.6721  142.5672  160.5778 C.ar    1  UNL1        0.0063
     17 C         140.9923  143.0731  161.8156 C.ar    1  UNL1        0.0180
     18 C         140.6727  142.1276  162.9354 C.ar    1  UNL1        0.0031
     19 O         141.9513  145.9096  158.4564 O.3     1  UNL1       -0.4640
     20 C         141.0662  145.9660  157.2466 C.3     1  UNL1        0.1678
     21 C         140.7281  145.4999  155.8615 C.3     1  UNL1        0.0473
     22 C         139.8713  146.5297  156.5364 C.3     1  UNL1        0.0473
     23 C         138.0944  139.9873  163.9664 C.2     1  UNL1        0.2470
     24 N         137.0455  140.8415  163.3184 N.am    1  UNL1       -0.3252
     25 O         138.4370  138.6485  163.3829 O.2     1  UNL1       -0.2702
     26 H         136.8205  141.7202  163.7013 H       1  UNL1        0.1453
     27 H         136.5819  140.5235  162.5101 H       1  UNL1        0.1453
     28 C         139.8437  140.3561  168.9347 C.3     1  UNL1        0.1311
     29 C         139.9793  142.0851  170.1563 C.3     1  UNL1        0.0045
     30 C         140.9526  141.0555  169.6638 C.3     1  UNL1        0.0497
     31 C         141.9258  140.0259  169.1712 C.3     1  UNL1        0.0045
     32 C         142.0614  141.7548  170.3928 C.3     1  UNL1        0.1389
     33 O         141.9161  142.0732  171.8514 O.3     1  UNL1       -0.3819
     34 H         141.2071  142.7243  171.9711 H       1  UNL1        0.2104
@<TRIPOS>BOND
     1    29    30    1
     2    30    31    1
     3    30    32    1
     4    32    33    1
     5    30    28    1
     6    28     1    1
     7     1     2   ar
     8     2     3   ar
     9     3     9    1
    10     9    10   ar
    11    10    11   ar
    12    11    12   ar
    13    12    13   ar
    14    13    14   ar
    15    14    19    1
    16    19    20    1
    17    20    21    1
    18    21    22    1
    19    14    15   ar
    20    15    16   ar
    21    16    17   ar
    22    17    18   ar
    23     3     4   ar
    24     4    23    1
    25    23    24   am
    26    23    25    2
    27     4     5   ar
    28     5     6    1
    29     5     1   ar
    30    18     9   ar
    31    17    12   ar
    32    22    20    1
    33    33    34    1
    34    24    26    1
    35    24    27    1
    36     6     7    1
    37     6     8    1
@<TRIPOS>MOLECULE
*****
 34 37 0 0 0
SMALL
GASTEIGER

@<TRIPOS>ATOM
      1 N         142.5687  139.8461  167.6735 N.ar    1  UNL1       -0.2380
      2 N         142.0123  141.0697  167.0078 N.ar    1  UNL1       -0.1680
      3 C         142.4211  141.0388  165.5649 C.ar    1  UNL1        0.1079
      4 C         143.2301  139.7961  165.3387 C.ar    1  UNL1        0.1031
      5 C         143.3213  139.0589  166.6419 C.ar    1  UNL1        0.1281
      6 N         144.0392  137.7623  166.8730 N.pl3   1  UNL1       -0.3427
      7 H         144.5071  137.3192  166.1286 H       1  UNL1        0.1437
      8 H         144.0424  137.3543  167.7689 H       1  UNL1        0.1437
      9 C         142.0806  142.0698  164.5298 C.ar    1  UNL1        0.0197
     10 C         142.6187  143.4643  164.6548 C.ar    1  UNL1        0.0031
     11 C         142.2782  144.4951  163.6197 C.ar    1  UNL1        0.0193
     12 C         141.3996  144.1315  162.4597 C.ar    1  UNL1        0.0844
     13 N         141.0591  145.1624  161.4246 N.ar    1  UNL1       -0.2117
     14 C         140.1804  144.7987  160.2646 C.ar    1  UNL1        0.2247
     15 C         139.6423  143.4041  160.1396 C.ar    1  UNL1        0.0577
     16 C         139.9828  142.3733  161.1746 C.ar    1  UNL1        0.0063
     17 C         140.8614  142.7370  162.3347 C.ar    1  UNL1        0.0180
     18 C         141.2019  141.7061  163.3697 C.ar    1  UNL1        0.0031
     19 O         139.8399  145.8296  159.2295 O.3     1  UNL1       -0.4640
     20 C         140.4187  145.7264  157.8495 C.3     1  UNL1        0.1678
     21 C         140.2773  145.3397  156.4071 C.3     1  UNL1        0.0473
     22 C         141.5624  145.9346  156.9016 C.3     1  UNL1        0.0473
     23 C         143.8407  139.3661  164.0379 C.2     1  UNL1        0.2470
     24 N         145.1724  139.9131  163.6172 N.am    1  UNL1       -0.3252
     25 O         143.1193  138.3888  163.1576 O.2     1  UNL1       -0.2702
     26 H         145.6459  140.5545  164.1949 H       1  UNL1        0.1453
     27 H         145.5731  139.6308  162.7634 H       1  UNL1        0.1453
     28 C         142.4018  139.4747  169.1171 C.3     1  UNL1        0.1311
     29 C         140.5259  139.8341  170.0403 C.3     1  UNL1        0.0045
     30 C         141.8769  140.4836  170.0952 C.3     1  UNL1        0.0497
     31 C         143.2278  141.1331  170.1501 C.3     1  UNL1        0.0045
     32 C         141.3521  141.4925  171.0733 C.3     1  UNL1        0.1389
     33 O         142.2978  142.2120  171.9888 O.3     1  UNL1       -0.3819
     34 H         142.6948  141.5782  172.6065 H       1  UNL1        0.2104
@<TRIPOS>BOND
     1    29    30    1
     2    30    31    1
     3    30    32    1
     4    32    33    1
     5    30    28    1
     6    28     1    1
     7     1     2   ar
     8     2     3   ar
     9     3     9    1
    10     9    10   ar
    11    10    11   ar
    12    11    12   ar
    13    12    13   ar
    14    13    14   ar
    15    14    19    1
    16    19    20    1
    17    20    21    1
    18    21    22    1
    19    14    15   ar
    20    15    16   ar
    21    16    17   ar
    22    17    18   ar
    23     3     4   ar
    24     4    23    1
    25    23    24   am
    26    23    25    2
    27     4     5   ar
    28     5     6    1
    29     5     1   ar
    30    18     9   ar
    31    17    12   ar
    32    22    20    1
    33    33    34    1
    34    24    26    1
    35    24    27    1
    36     6     7    1
    37     6     8    1
@<TRIPOS>MOLECULE
*****
 34 37 0 0 0
SMALL
GASTEIGER

@<TRIPOS>ATOM
      1 N         140.3804  141.8223  167.7902 N.ar    1  UNL1       -0.2380
      2 N         140.2250  142.0906  166.3226 N.ar    1  UNL1       -0.1680
      3 C         139.4606  140.9488  165.7209 C.ar    1  UNL1        0.1079
      4 C         139.1437  139.9747  166.8166 C.ar    1  UNL1        0.1031
      5 C         139.7121  140.5145  168.0955 C.ar    1  UNL1        0.1281
      6 N         139.6272  139.8613  169.4431 N.pl3   1  UNL1       -0.3427
      7 H         139.1648  138.9979  169.5434 H       1  UNL1        0.1437
      8 H         140.0337  140.2959  170.2274 H       1  UNL1        0.1437
      9 C         139.0801  140.8061  164.2770 C.ar    1  UNL1        0.0197
     10 C         137.7537  141.3162  163.7970 C.ar    1  UNL1        0.0031
     11 C         137.3732  141.1735  162.3531 C.ar    1  UNL1        0.0193
     12 C         138.3191  140.5207  161.3892 C.ar    1  UNL1        0.0844
     13 N         137.9386  140.3781  159.9453 N.ar    1  UNL1       -0.2117
     14 C         138.8845  139.7252  158.9814 C.ar    1  UNL1        0.2247
     15 C         140.2109  139.2151  159.4614 C.ar    1  UNL1        0.0577
     16 C         140.5914  139.3578  160.9053 C.ar    1  UNL1        0.0063
     17 C         139.6455  140.0106  161.8692 C.ar    1  UNL1        0.0180
     18 C         140.0260  140.1533  163.3131 C.ar    1  UNL1        0.0031
     19 O         138.5040  139.5825  157.5375 O.3     1  UNL1       -0.4640
     20 C         137.8714  140.7326  156.8114 C.3     1  UNL1        0.1678
     21 C         137.2963  142.1180  156.8229 C.3     1  UNL1        0.0473
     22 C         137.3507  141.3392  155.5421 C.3     1  UNL1        0.0473
     23 C         138.3905  138.6869  166.6609 C.2     1  UNL1        0.2470
     24 N         138.6846  137.7814  165.5018 N.am    1  UNL1       -0.3252
     25 O         137.3432  138.3046  167.6645 O.2     1  UNL1       -0.2702
     26 H         139.3719  138.0323  164.8432 H       1  UNL1        0.1453
     27 H         138.1902  136.9362  165.3997 H       1  UNL1        0.1453
     28 C         141.0811  142.7064  168.7788 C.3     1  UNL1        0.1311
     29 C         142.9812  142.2497  167.9534 C.3     1  UNL1        0.0045
     30 C         142.4108  142.2976  169.3399 C.3     1  UNL1        0.0497
     31 C         141.8404  142.3454  170.7263 C.3     1  UNL1        0.0045
     32 C         143.7404  141.8888  169.9011 C.3     1  UNL1        0.1389
     33 O         144.7536  142.9331  170.2658 O.3     1  UNL1       -0.3819
     34 H         145.0497  143.3905  169.4633 H       1  UNL1        0.2104
@<TRIPOS>BOND
     1    29    30    1
     2    30    31    1
     3    30    32    1
     4    32    33    1
     5    30    28    1
     6    28     1    1
     7     1     2   ar
     8     2     3   ar
     9     3     9    1
    10     9    10   ar
    11    10    11   ar
    12    11    12   ar
    13    12    13   ar
    14    13    14   ar
    15    14    19    1
    16    19    20    1
    17    20    21    1
    18    21    22    1
    19    14    15   ar
    20    15    16   ar
    21    16    17   ar
    22    17    18   ar
    23     3     4   ar
    24     4    23    1
    25    23    24   am
    26    23    25    2
    27     4     5   ar
    28     5     6    1
    29     5     1   ar
    30    18     9   ar
    31    17    12   ar
    32    22    20    1
    33    33    34    1
    34    24    26    1
    35    24    27    1
    36     6     7    1
    37     6     8    1
@<TRIPOS>MOLECULE
*****
 34 37 0 0 0
SMALL
GASTEIGER

@<TRIPOS>ATOM
      1 N         140.5533  140.4749  167.2375 N.ar    1  UNL1       -0.2380
      2 N         141.0247  139.6232  166.0963 N.ar    1  UNL1       -0.1680
      3 C         141.5150  140.5339  165.0099 C.ar    1  UNL1        0.1079
      4 C         141.3466  141.9485  165.4796 C.ar    1  UNL1        0.1031
      5 C         140.7523  141.9120  166.8563 C.ar    1  UNL1        0.1281
      6 N         140.4159  143.1035  167.7033 N.pl3   1  UNL1       -0.3427
      7 H         140.5842  144.0121  167.3637 H       1  UNL1        0.1437
      8 H         140.0268  142.9769  168.5987 H       1  UNL1        0.1437
      9 C         142.0753  140.1053  163.6860 C.ar    1  UNL1        0.0197
     10 C         143.5591  139.9814  163.5043 C.ar    1  UNL1        0.0031
     11 C         144.1193  139.5528  162.1806 C.ar    1  UNL1        0.0193
     12 C         143.1958  139.2480  161.0386 C.ar    1  UNL1        0.0844
     13 N         143.7561  138.8193  159.7148 N.ar    1  UNL1       -0.2117
     14 C         142.8326  138.5145  158.5727 C.ar    1  UNL1        0.2247
     15 C         141.3487  138.6384  158.7545 C.ar    1  UNL1        0.0577
     16 C         140.7885  139.0670  160.0783 C.ar    1  UNL1        0.0063
     17 C         141.7120  139.3718  161.2203 C.ar    1  UNL1        0.0180
     18 C         141.1518  139.8005  162.5440 C.ar    1  UNL1        0.0031
     19 O         143.3928  138.0859  157.2490 O.3     1  UNL1       -0.4640
     20 C         143.1092  136.7093  156.7248 C.3     1  UNL1        0.1678
     21 C         143.6000  135.3896  156.2075 C.3     1  UNL1        0.0473
     22 C         142.1273  135.6447  156.3344 C.3     1  UNL1        0.0473
     23 C         141.7089  143.1828  164.7081 C.2     1  UNL1        0.2470
     24 N         143.1358  143.6423  164.6550 N.am    1  UNL1       -0.3252
     25 O         140.6442  143.9576  163.9897 O.2     1  UNL1       -0.2702
     26 H         143.8345  143.1338  165.1266 H       1  UNL1        0.1453
     27 H         143.3735  144.4524  164.1487 H       1  UNL1        0.1453
     28 C         139.9831  139.9770  168.5324 C.3     1  UNL1        0.1311
     29 C         139.3175  141.1705  170.1550 C.3     1  UNL1        0.0045
     30 C         140.5783  140.4234  169.8349 C.3     1  UNL1        0.0497
     31 C         141.8389  139.6764  169.5149 C.3     1  UNL1        0.0045
     32 C         141.1734  140.8699  171.1375 C.3     1  UNL1        0.1389
     33 O         140.5295  141.9792  171.9151 O.3     1  UNL1       -0.3819
     34 H         140.5966  142.8068  171.4137 H       1  UNL1        0.2104
@<TRIPOS>BOND
     1    29    30    1
     2    30    31    1
     3    30    32    1
     4    32    33    1
     5    30    28    1
     6    28     1    1
     7     1     2   ar
     8     2     3   ar
     9     3     9    1
    10     9    10   ar
    11    10    11   ar
    12    11    12   ar
    13    12    13   ar
    14    13    14   ar
    15    14    19    1
    16    19    20    1
    17    20    21    1
    18    21    22    1
    19    14    15   ar
    20    15    16   ar
    21    16    17   ar
    22    17    18   ar
    23     3     4   ar
    24     4    23    1
    25    23    24   am
    26    23    25    2
    27     4     5   ar
    28     5     6    1
    29     5     1   ar
    30    18     9   ar
    31    17    12   ar
    32    22    20    1
    33    33    34    1
    34    24    26    1
    35    24    27    1
    36     6     7    1
    37     6     8    1
@<TRIPOS>MOLECULE
*****
 34 37 0 0 0
SMALL
GASTEIGER

@<TRIPOS>ATOM
      1 N         141.9265  139.7291  167.8529 N.ar    1  UNL1       -0.2380
      2 N         141.1225  140.6828  167.0199 N.ar    1  UNL1       -0.1680
      3 C         141.5731  140.5479  165.5956 C.ar    1  UNL1        0.1079
      4 C         142.6557  139.5108  165.5482 C.ar    1  UNL1        0.1031
      5 C         142.8742  139.0047  166.9432 C.ar    1  UNL1        0.1281
      6 N         143.8661  137.9579  167.3562 N.pl3   1  UNL1       -0.3427
      7 H         144.4477  137.5378  166.6822 H       1  UNL1        0.1437
      8 H         143.9354  137.6911  168.3013 H       1  UNL1        0.1437
      9 C         141.0355  141.3155  164.4243 C.ar    1  UNL1        0.0197
     10 C         139.6784  140.9909  163.8740 C.ar    1  UNL1        0.0031
     11 C         139.1409  141.7584  162.7027 C.ar    1  UNL1        0.0193
     12 C         139.9605  142.8506  162.0818 C.ar    1  UNL1        0.0844
     13 N         139.4228  143.6181  160.9104 N.ar    1  UNL1       -0.2117
     14 C         140.2424  144.7102  160.2895 C.ar    1  UNL1        0.2247
     15 C         141.5996  145.0348  160.8398 C.ar    1  UNL1        0.0577
     16 C         142.1371  144.2672  162.0111 C.ar    1  UNL1        0.0063
     17 C         141.3176  143.1751  162.6321 C.ar    1  UNL1        0.0180
     18 C         141.8551  142.4076  163.8033 C.ar    1  UNL1        0.0031
     19 O         139.7049  145.4778  159.1182 O.3     1  UNL1       -0.4640
     20 C         140.5839  145.7522  157.9341 C.3     1  UNL1        0.1678
     21 C         141.9514  145.9428  157.3477 C.3     1  UNL1        0.0473
     22 C         140.7390  146.0370  156.4696 C.3     1  UNL1        0.0473
     23 C         143.3909  139.0590  164.3213 C.2     1  UNL1        0.2470
     24 N         144.8185  139.4672  164.1093 N.am    1  UNL1       -0.3252
     25 O         142.6982  138.1989  163.3061 O.2     1  UNL1       -0.2702
     26 H         145.2732  140.0317  164.7756 H       1  UNL1        0.1453
     27 H         145.3010  139.1707  163.3040 H       1  UNL1        0.1453
     28 C         141.8045  139.5339  169.3351 C.3     1  UNL1        0.1311
     29 C         140.2892  140.4565  170.4982 C.3     1  UNL1        0.0045
     30 C         141.7433  140.7243  170.2458 C.3     1  UNL1        0.0497
     31 C         143.1974  140.9920  169.9934 C.3     1  UNL1        0.0045
     32 C         141.6822  141.9146  171.1565 C.3     1  UNL1        0.1389
     33 O         140.7005  143.0161  170.8861 O.3     1  UNL1       -0.3819
     34 H         140.9326  143.4592  170.0550 H       1  UNL1        0.2104
@<TRIPOS>BOND
     1    29    30    1
     2    30    31    1
     3    30    32    1
     4    32    33    1
     5    30    28    1
     6    28     1    1
     7     1     2   ar
     8     2     3   ar
     9     3     9    1
    10     9    10   ar
    11    10    11   ar
    12    11    12   ar
    13    12    13   ar
    14    13    14   ar
    15    14    19    1
    16    19    20    1
    17    20    21    1
    18    21    22    1
    19    14    15   ar
    20    15    16   ar
    21    16    17   ar
    22    17    18   ar
    23     3     4   ar
    24     4    23    1
    25    23    24   am
    26    23    25    2
    27     4     5   ar
    28     5     6    1
    29     5     1   ar
    30    18     9   ar
    31    17    12   ar
    32    22    20    1
    33    33    34    1
    34    24    26    1
    35    24    27    1
    36     6     7    1
    37     6     8    1
@<TRIPOS>MOLECULE
*****
 34 37 0 0 0
SMALL
GASTEIGER

@<TRIPOS>ATOM
      1 N         142.6798  143.3301  158.9703 N.ar    1  UNL1       -0.2380
      2 N         142.5901  142.4098  160.1514 N.ar    1  UNL1       -0.1680
      3 C         141.7999  143.1039  161.2209 C.ar    1  UNL1        0.1079
      4 C         141.4011  144.4531  160.7008 C.ar    1  UNL1        0.1031
      5 C         141.9449  144.5929  159.3099 C.ar    1  UNL1        0.1281
      6 N         141.7824  145.7861  158.4155 N.pl3   1  UNL1       -0.3427
      7 H         141.2799  146.5722  158.7299 H       1  UNL1        0.1437
      8 H         142.1783  145.7832  157.5141 H       1  UNL1        0.1437
      9 C         141.4669  142.5465  162.5732 C.ar    1  UNL1        0.0197
     10 C         142.3716  142.8156  163.7389 C.ar    1  UNL1        0.0031
     11 C         142.0386  142.2583  165.0911 C.ar    1  UNL1        0.0193
     12 C         140.8008  141.4318  165.2775 C.ar    1  UNL1        0.0844
     13 N         140.4678  140.8744  166.6298 N.ar    1  UNL1       -0.2117
     14 C         139.2300  140.0479  166.8162 C.ar    1  UNL1        0.2247
     15 C         138.3252  139.7788  165.6504 C.ar    1  UNL1        0.0577
     16 C         138.6582  140.3361  164.2982 C.ar    1  UNL1        0.0063
     17 C         139.8960  141.1626  164.1118 C.ar    1  UNL1        0.0180
     18 C         140.2291  141.7200  162.7596 C.ar    1  UNL1        0.0031
     19 O         138.8969  139.4905  168.1684 O.3     1  UNL1       -0.4640
     20 C         139.3987  140.1741  169.4057 C.3     1  UNL1        0.1678
     21 C         139.4718  141.3923  170.2779 C.3     1  UNL1        0.0473
     22 C         140.1945  140.1399  170.6767 C.3     1  UNL1        0.0473
     23 C         140.5994  145.4819  161.4415 C.2     1  UNL1        0.2470
     24 N         141.0257  145.9220  162.8106 N.am    1  UNL1       -0.3252
     25 O         139.3711  146.0706  160.8130 O.2     1  UNL1       -0.2702
     26 H         141.8317  145.5357  163.2231 H       1  UNL1        0.1453
     27 H         140.4994  146.5973  163.2967 H       1  UNL1        0.1453
     28 C         143.3811  143.0387  157.6768 C.3     1  UNL1        0.1311
     29 C         144.8244  141.4891  157.5509 C.3     1  UNL1        0.0045
     30 C         143.3934  141.6427  157.1282 C.3     1  UNL1        0.0497
     31 C         141.9625  141.7962  156.7056 C.3     1  UNL1        0.0045
     32 C         143.4057  140.2467  156.5796 C.3     1  UNL1        0.1389
     33 O         143.7957  139.0977  157.4615 O.3     1  UNL1       -0.3819
     34 H         144.7296  139.1830  157.7095 H       1  UNL1        0.2104
@<TRIPOS>BOND
     1    29    30    1
     2    30    31    1
     3    30    32    1
     4    32    33    1
     5    30    28    1
     6    28     1    1
     7     1     2   ar
     8     2     3   ar
     9     3     9    1
    10     9    10   ar
    11    10    11   ar
    12    11    12   ar
    13    12    13   ar
    14    13    14   ar
    15    14    19    1
    16    19    20    1
    17    20    21    1
    18    21    22    1
    19    14    15   ar
    20    15    16   ar
    21    16    17   ar
    22    17    18   ar
    23     3     4   ar
    24     4    23    1
    25    23    24   am
    26    23    25    2
    27     4     5   ar
    28     5     6    1
    29     5     1   ar
    30    18     9   ar
    31    17    12   ar
    32    22    20    1
    33    33    34    1
    34    24    26    1
    35    24    27    1
    36     6     7    1
    37     6     8    1
@<TRIPOS>MOLECULE
*****
 34 37 0 0 0
SMALL
GASTEIGER

@<TRIPOS>ATOM
      1 N         142.6754  139.7893  167.2240 N.ar    1  UNL1       -0.2380
      2 N         142.5593  138.9210  166.0065 N.ar    1  UNL1       -0.1680
      3 C         142.7823  139.7830  164.7993 C.ar    1  UNL1        0.1079
      4 C         143.0363  141.1841  165.2709 C.ar    1  UNL1        0.1031
      5 C         142.9702  141.1880  166.7694 C.ar    1  UNL1        0.1281
      6 N         143.1648  142.3812  167.6574 N.pl3   1  UNL1       -0.3427
      7 H         143.3554  143.2627  167.2627 H       1  UNL1        0.1437
      8 H         143.1019  142.2827  168.6350 H       1  UNL1        0.1437
      9 C         142.7559  139.3244  163.3713 C.ar    1  UNL1        0.0197
     10 C         143.9962  138.7645  162.7404 C.ar    1  UNL1        0.0031
     11 C         143.9698  138.3059  161.3125 C.ar    1  UNL1        0.0193
     12 C         142.7031  138.4073  160.5155 C.ar    1  UNL1        0.0844
     13 N         142.6768  137.9487  159.0875 N.ar    1  UNL1       -0.2117
     14 C         141.4101  138.0501  158.2905 C.ar    1  UNL1        0.2247
     15 C         140.1697  138.6100  158.9215 C.ar    1  UNL1        0.0577
     16 C         140.1961  139.0686  160.3494 C.ar    1  UNL1        0.0063
     17 C         141.4628  138.9672  161.1464 C.ar    1  UNL1        0.0180
     18 C         141.4892  139.4258  162.5743 C.ar    1  UNL1        0.0031
     19 O         141.3837  137.5915  156.8626 O.3     1  UNL1       -0.4640
     20 C         141.9705  136.2620  156.4909 C.3     1  UNL1        0.1678
     21 C         141.8966  134.9809  155.7142 C.3     1  UNL1        0.0473
     22 C         143.0608  135.2405  156.6236 C.3     1  UNL1        0.0473
     23 C         143.3085  142.3727  164.3973 C.2     1  UNL1        0.2470
     24 N         142.2267  142.9162  163.5117 N.am    1  UNL1       -0.3252
     25 O         144.6627  143.0179  164.4093 O.2     1  UNL1       -0.2702
     26 H         141.3380  142.4928  163.5037 H       1  UNL1        0.1453
     27 H         142.4055  143.6963  162.9383 H       1  UNL1        0.1453
     28 C         142.5235  139.3381  168.6465 C.3     1  UNL1        0.1311
     29 C         140.4769  139.8958  168.6187 C.3     1  UNL1        0.0045
     30 C         141.6150  140.0853  169.5773 C.3     1  UNL1        0.0497
     31 C         142.7530  140.2748  170.5359 C.3     1  UNL1        0.0045
     32 C         140.7065  140.8325  170.5082 C.3     1  UNL1        0.1389
     33 O         140.8193  140.6289  171.9900 O.3     1  UNL1       -0.3819
     34 H         140.5661  139.7191  172.2116 H       1  UNL1        0.2104
@<TRIPOS>BOND
     1    29    30    1
     2    30    31    1
     3    30    32    1
     4    32    33    1
     5    30    28    1
     6    28     1    1
     7     1     2   ar
     8     2     3   ar
     9     3     9    1
    10     9    10   ar
    11    10    11   ar
    12    11    12   ar
    13    12    13   ar
    14    13    14   ar
    15    14    19    1
    16    19    20    1
    17    20    21    1
    18    21    22    1
    19    14    15   ar
    20    15    16   ar
    21    16    17   ar
    22    17    18   ar
    23     3     4   ar
    24     4    23    1
    25    23    24   am
    26    23    25    2
    27     4     5   ar
    28     5     6    1
    29     5     1   ar
    30    18     9   ar
    31    17    12   ar
    32    22    20    1
    33    33    34    1
    34    24    26    1
    35    24    27    1
    36     6     7    1
    37     6     8    1
@<TRIPOS>MOLECULE
*****
 34 37 0 0 0
SMALL
GASTEIGER

@<TRIPOS>ATOM
      1 N         140.4695  140.5652  166.9042 N.ar    1  UNL1       -0.2380
      2 N         141.4895  140.7128  165.8144 N.ar    1  UNL1       -0.1680
      3 C         141.0830  139.8250  164.6757 C.ar    1  UNL1        0.1079
      4 C         139.8118  139.1287  165.0618 C.ar    1  UNL1        0.1031
      5 C         139.4326  139.5861  166.4391 C.ar    1  UNL1        0.1281
      6 N         138.2279  139.1424  167.2150 N.pl3   1  UNL1       -0.3427
      7 H         137.6016  138.4922  166.8225 H       1  UNL1        0.1437
      8 H         138.0637  139.5015  168.1169 H       1  UNL1        0.1437
      9 C         141.8186  139.6621  163.3786 C.ar    1  UNL1        0.0197
     10 C         142.5602  138.3902  163.0916 C.ar    1  UNL1        0.0031
     11 C         143.2958  138.2274  161.7945 C.ar    1  UNL1        0.0193
     12 C         143.2898  139.3364  160.7846 C.ar    1  UNL1        0.0844
     13 N         144.0255  139.1735  159.4875 N.ar    1  UNL1       -0.2117
     14 C         144.0195  140.2825  158.4775 C.ar    1  UNL1        0.2247
     15 C         143.2779  141.5544  158.7646 C.ar    1  UNL1        0.0577
     16 C         142.5423  141.7173  160.0616 C.ar    1  UNL1        0.0063
     17 C         142.5483  140.6083  161.0716 C.ar    1  UNL1        0.0180
     18 C         141.8127  140.7711  162.3686 C.ar    1  UNL1        0.0031
     19 O         144.7551  140.1197  157.1805 O.3     1  UNL1       -0.4640
     20 C         145.5209  141.2729  156.6026 C.3     1  UNL1        0.1678
     21 C         146.6055  142.3021  156.7216 C.3     1  UNL1        0.0473
     22 C         145.7624  142.2409  155.4825 C.3     1  UNL1        0.0473
     23 C         139.0529  138.1472  164.2187 C.2     1  UNL1        0.2470
     24 N         138.7752  138.4540  162.7770 N.am    1  UNL1       -0.3252
     25 O         138.5717  136.8587  164.8175 O.2     1  UNL1       -0.2702
     26 H         139.0910  139.2996  162.3840 H       1  UNL1        0.1453
     27 H         138.2771  137.8098  162.2237 H       1  UNL1        0.1453
     28 C         140.4838  141.2725  168.2269 C.3     1  UNL1        0.1311
     29 C         139.3016  140.9389  169.9564 C.3     1  UNL1        0.0045
     30 C         140.6560  140.4891  169.4945 C.3     1  UNL1        0.0497
     31 C         142.0103  140.0394  169.0325 C.3     1  UNL1        0.0045
     32 C         140.8282  139.7057  170.7620 C.3     1  UNL1        0.1389
     33 O         139.6241  139.2120  171.5080 O.3     1  UNL1       -0.3819
     34 H         139.1239  139.9688  171.8514 H       1  UNL1        0.2104
@<TRIPOS>BOND
     1    29    30    1
     2    30    31    1
     3    30    32    1
     4    32    33    1
     5    30    28    1
     6    28     1    1
     7     1     2   ar
     8     2     3   ar
     9     3     9    1
    10     9    10   ar
    11    10    11   ar
    12    11    12   ar
    13    12    13   ar
    14    13    14   ar
    15    14    19    1
    16    19    20    1
    17    20    21    1
    18    21    22    1
    19    14    15   ar
    20    15    16   ar
    21    16    17   ar
    22    17    18   ar
    23     3     4   ar
    24     4    23    1
    25    23    24   am
    26    23    25    2
    27     4     5   ar
    28     5     6    1
    29     5     1   ar
    30    18     9   ar
    31    17    12   ar
    32    22    20    1
    33    33    34    1
    34    24    26    1
    35    24    27    1
    36     6     7    1
    37     6     8    1
