@<TRIPOS>MOLECULE
*****
 35 40 0 0 0
SMALL
GASTEIGER

@<TRIPOS>ATOM
      1 C         139.2887  139.3080  163.9822 C.3     1  UNL1        0.1534
      2 C         140.6246  139.0449  163.3529 C.3     1  UNL1        0.1067
      3 N         140.7222  138.7950  161.8771 N.3     1  UNL1       -0.2665
      4 C         142.0582  138.5318  161.2477 C.3     1  UNL1        0.0940
      5 C         142.1558  138.2819  159.7719 C.3     1  UNL1        0.1107
      6 N         140.9175  138.2951  158.9254 N.am    1  UNL1       -0.2764
      7 C         141.0151  138.0452  157.4497 C.2     1  UNL1        0.2302
      8 O         139.7769  138.0584  156.6032 O.2     1  UNL1       -0.2745
      9 C         139.5816  138.5582  159.5548 C.3     1  UNL1        0.1119
     10 C         139.4840  138.8082  161.0306 C.3     1  UNL1        0.1075
     11 C         138.1481  139.0713  161.6599 C.3     1  UNL1        0.1601
     12 O         138.0504  139.3212  163.1357 O.3     1  UNL1       -0.3489
     13 O         137.9045  139.5452  170.7111 O.2     1  UNL1       -0.2449
     14 C         138.8979  140.3077  169.8854 C.2     1  UNL1        0.3409
     15 O         139.7937  141.3201  170.5355 O.3     1  UNL1       -0.4451
     16 C         140.7871  142.0826  169.7099 C.3     1  UNL1        0.2134
     17 C         140.8848  141.8327  168.2341 C.3     1  UNL1        0.0740
     18 C         139.9891  140.8203  167.5840 C.ar    1  UNL1       -0.0124
     19 C         140.0867  140.5703  166.1081 C.ar    1  UNL1       -0.0058
     20 C         139.1910  139.5579  165.4580 C.ar    1  UNL1        0.0056
     21 C         138.1976  138.7954  166.2837 C.ar    1  UNL1       -0.0017
     22 C         138.0999  139.0453  167.7594 C.ar    1  UNL1        0.0059
     23 C         138.9956  140.0578  168.4096 C.ar    1  UNL1        0.0718
     24 C         142.3511  137.7820  156.8203 C.3     1  UNL1        0.1131
     25 C         142.7280  136.3877  156.4157 C.ar    1  UNL1        0.0062
     26 C         142.5494  135.9452  154.9935 C.ar    1  UNL1        0.0009
     27 C         142.9263  134.5509  154.5889 C.ar    1  UNL1        0.0386
     28 C         143.4817  133.5989  155.6064 C.ar    1  UNL1        0.1672
     29 N         143.6602  134.0413  157.0285 N.ar    1  UNL1       -0.2252
     30 C         143.2834  135.4357  157.4332 C.ar    1  UNL1        0.0968
     31 N         143.8585  132.2046  155.2018 N.ar    1  UNL1       -0.1708
     32 C         144.7882  131.2917  155.9451 C.ar    1  UNL1        0.2272
     33 N         144.8761  130.0012  155.1855 N.ar    1  UNL1       -0.1044
     34 N         144.0007  130.1165  153.9729 N.ar    1  UNL1       -0.0222
     35 N         143.3719  131.4782  153.9829 N.ar    1  UNL1       -0.0371
@<TRIPOS>BOND
     1    13    14    2
     2    14    15    1
     3    15    16    1
     4    16    17    1
     5    17    18    1
     6    18    19   ar
     7    19    20   ar
     8     1    20    1
     9     1     2    1
    10     2     3    1
    11     3     4    1
    12     4     5    1
    13     5     6    1
    14     6     7   am
    15     7     8    2
    16     7    24    1
    17    24    25    1
    18    25    26   ar
    19    26    27   ar
    20    27    28   ar
    21    28    31    1
    22    31    32   ar
    23    32    33   ar
    24    33    34   ar
    25    34    35   ar
    26    28    29   ar
    27    29    30   ar
    28     6     9    1
    29    10     9    1
    30    10    11    1
    31    11    12    1
    32    20    21   ar
    33    21    22   ar
    34    22    23   ar
    35    23    14    1
    36    23    18   ar
    37    12     1    1
    38    10     3    1
    39    30    25   ar
    40    35    31   ar
@<TRIPOS>MOLECULE
*****
 35 40 0 0 0
SMALL
GASTEIGER

@<TRIPOS>ATOM
      1 C         141.7213  140.1051  164.6778 C.3     1  UNL1        0.1534
      2 C         140.9662  139.3772  163.6055 C.3     1  UNL1        0.1067
      3 N         141.5051  139.3341  162.2063 N.3     1  UNL1       -0.2665
      4 C         140.7500  138.6062  161.1339 C.3     1  UNL1        0.0940
      5 C         141.2888  138.5630  159.7347 C.3     1  UNL1        0.1107
      6 N         142.5828  139.2477  159.4079 N.am    1  UNL1       -0.2764
      7 C         143.1217  139.2046  158.0087 C.2     1  UNL1        0.2302
      8 O         144.4156  139.8893  157.6819 O.2     1  UNL1       -0.2745
      9 C         143.3379  139.9756  160.4802 C.3     1  UNL1        0.1119
     10 C         142.7991  140.0188  161.8795 C.3     1  UNL1        0.1075
     11 C         143.5542  140.7466  162.9518 C.3     1  UNL1        0.1601
     12 O         143.0153  140.7898  164.3510 O.3     1  UNL1       -0.3489
     13 O         138.1438  139.8834  170.5432 O.2     1  UNL1       -0.2449
     14 C         139.5659  140.2778  170.2747 C.2     1  UNL1        0.3409
     15 O         140.4491  140.7153  171.4053 O.3     1  UNL1       -0.4451
     16 C         141.8712  141.1096  171.1368 C.3     1  UNL1        0.2134
     17 C         142.4101  141.0664  169.7377 C.3     1  UNL1        0.0740
     18 C         141.5269  140.6289  168.6070 C.ar    1  UNL1       -0.0124
     19 C         142.0657  140.5858  167.2077 C.ar    1  UNL1       -0.0058
     20 C         141.1825  140.1483  166.0771 C.ar    1  UNL1        0.0056
     21 C         139.7604  139.7539  166.3456 C.ar    1  UNL1       -0.0017
     22 C         139.2215  139.7971  167.7448 C.ar    1  UNL1        0.0059
     23 C         140.1047  140.2346  168.8755 C.ar    1  UNL1        0.0718
     24 C         142.3665  138.4767  156.9363 C.3     1  UNL1        0.1131
     25 C         142.7350  137.0657  156.5855 C.ar    1  UNL1        0.0062
     26 C         142.8828  136.6644  155.1477 C.ar    1  UNL1        0.0009
     27 C         143.2513  135.2533  154.7969 C.ar    1  UNL1        0.0386
     28 C         143.4720  134.2435  155.8838 C.ar    1  UNL1        0.1672
     29 N         143.3243  134.6447  157.3216 N.ar    1  UNL1       -0.2252
     30 C         142.9558  136.0558  157.6724 C.ar    1  UNL1        0.0968
     31 N         143.8405  132.8324  155.5330 N.ar    1  UNL1       -0.1708
     32 C         144.8285  131.9717  156.2632 C.ar    1  UNL1        0.2272
     33 N         144.8843  130.6416  155.5719 N.ar    1  UNL1       -0.1044
     34 N         143.9308  130.6804  154.4145 N.ar    1  UNL1       -0.0222
     35 N         143.2857  132.0343  154.3905 N.ar    1  UNL1       -0.0371
@<TRIPOS>BOND
     1    13    14    2
     2    14    15    1
     3    15    16    1
     4    16    17    1
     5    17    18    1
     6    18    19   ar
     7    19    20   ar
     8     1    20    1
     9     1     2    1
    10     2     3    1
    11     3     4    1
    12     4     5    1
    13     5     6    1
    14     6     7   am
    15     7     8    2
    16     7    24    1
    17    24    25    1
    18    25    26   ar
    19    26    27   ar
    20    27    28   ar
    21    28    31    1
    22    31    32   ar
    23    32    33   ar
    24    33    34   ar
    25    34    35   ar
    26    28    29   ar
    27    29    30   ar
    28     6     9    1
    29    10     9    1
    30    10    11    1
    31    11    12    1
    32    20    21   ar
    33    21    22   ar
    34    22    23   ar
    35    23    14    1
    36    23    18   ar
    37    12     1    1
    38    10     3    1
    39    30    25   ar
    40    35    31   ar
@<TRIPOS>MOLECULE
*****
 35 40 0 0 0
SMALL
GASTEIGER

@<TRIPOS>ATOM
      1 C         140.7354  139.1522  164.1269 C.3     1  UNL1        0.1534
      2 C         141.8242  138.8145  163.1520 C.3     1  UNL1        0.1067
      3 N         141.4980  138.6207  161.7008 N.3     1  UNL1       -0.2665
      4 C         142.5868  138.2830  160.7259 C.3     1  UNL1        0.0940
      5 C         142.2606  138.0893  159.2747 C.3     1  UNL1        0.1107
      6 N         140.8456  138.2332  158.7984 N.am    1  UNL1       -0.2764
      7 C         140.5194  138.0395  157.3472 C.2     1  UNL1        0.2302
      8 O         139.1043  138.1834  156.8708 O.2     1  UNL1       -0.2745
      9 C         139.7567  138.5709  159.7732 C.3     1  UNL1        0.1119
     10 C         140.0829  138.7647  161.2245 C.3     1  UNL1        0.1075
     11 C         138.9941  139.1024  162.1993 C.3     1  UNL1        0.1601
     12 O         139.3203  139.2961  163.6505 O.3     1  UNL1       -0.3489
     13 O         143.4437  139.7208  170.4191 O.2     1  UNL1       -0.2449
     14 C         142.0401  139.9272  169.9318 C.2     1  UNL1        0.3409
     15 O         140.9628  140.3273  170.8957 O.3     1  UNL1       -0.4451
     16 C         139.5592  140.5336  170.4085 C.3     1  UNL1        0.2134
     17 C         139.2330  140.3398  168.9573 C.3     1  UNL1        0.0740
     18 C         140.3104  139.9398  167.9933 C.ar    1  UNL1       -0.0124
     19 C         139.9842  139.7460  166.5421 C.ar    1  UNL1       -0.0058
     20 C         141.0615  139.3459  165.5781 C.ar    1  UNL1        0.0056
     21 C         142.4651  139.1396  166.0654 C.ar    1  UNL1       -0.0017
     22 C         142.7913  139.3333  167.5166 C.ar    1  UNL1        0.0059
     23 C         141.7139  139.7334  168.4806 C.ar    1  UNL1        0.0718
     24 C         141.6082  137.7018  156.3722 C.3     1  UNL1        0.1131
     25 C         142.0347  136.2755  156.1887 C.ar    1  UNL1        0.0062
     26 C         143.3327  135.7999  156.7711 C.ar    1  UNL1        0.0009
     27 C         143.7592  134.3736  156.5875 C.ar    1  UNL1        0.0386
     28 C         142.8878  133.4228  155.8216 C.ar    1  UNL1        0.1672
     29 N         141.5899  133.8983  155.2392 N.ar    1  UNL1       -0.2252
     30 C         141.1633  135.3247  155.4228 C.ar    1  UNL1        0.0968
     31 N         143.3143  131.9965  155.6380 N.ar    1  UNL1       -0.1708
     32 C         142.4158  130.8442  155.2991 C.ar    1  UNL1        0.2272
     33 N         143.2604  129.6076  155.2127 N.ar    1  UNL1       -0.1044
     34 N         144.6809  129.9957  155.4983 N.ar    1  UNL1       -0.0222
     35 N         144.7143  131.4720  155.7612 N.ar    1  UNL1       -0.0371
@<TRIPOS>BOND
     1    13    14    2
     2    14    15    1
     3    15    16    1
     4    16    17    1
     5    17    18    1
     6    18    19   ar
     7    19    20   ar
     8     1    20    1
     9     1     2    1
    10     2     3    1
    11     3     4    1
    12     4     5    1
    13     5     6    1
    14     6     7   am
    15     7     8    2
    16     7    24    1
    17    24    25    1
    18    25    26   ar
    19    26    27   ar
    20    27    28   ar
    21    28    31    1
    22    31    32   ar
    23    32    33   ar
    24    33    34   ar
    25    34    35   ar
    26    28    29   ar
    27    29    30   ar
    28     6     9    1
    29    10     9    1
    30    10    11    1
    31    11    12    1
    32    20    21   ar
    33    21    22   ar
    34    22    23   ar
    35    23    14    1
    36    23    18   ar
    37    12     1    1
    38    10     3    1
    39    30    25   ar
    40    35    31   ar
@<TRIPOS>MOLECULE
*****
 35 40 0 0 0
SMALL
GASTEIGER

@<TRIPOS>ATOM
      1 C         140.4180  143.4836  157.7991 C.3     1  UNL1        0.1534
      2 C         139.3938  143.4085  158.8924 C.3     1  UNL1        0.1067
      3 N         139.4310  142.2787  159.8784 N.3     1  UNL1       -0.2665
      4 C         138.4068  142.2035  160.9718 C.3     1  UNL1        0.0940
      5 C         138.4439  141.0738  161.9578 C.3     1  UNL1        0.1107
      6 N         139.5052  140.0192  161.8505 N.am    1  UNL1       -0.2764
      7 C         139.5423  138.8894  162.8365 C.2     1  UNL1        0.2302
      8 O         140.6036  137.8349  162.7292 O.2     1  UNL1       -0.2745
      9 C         140.5294  140.0944  160.7572 C.3     1  UNL1        0.1119
     10 C         140.4923  141.2241  159.7711 C.3     1  UNL1        0.1075
     11 C         141.5164  141.2993  158.6778 C.3     1  UNL1        0.1601
     12 O         141.4793  142.4291  157.6918 O.3     1  UNL1       -0.3489
     13 O         140.9884  147.8780  152.5441 O.2     1  UNL1       -0.2449
     14 C         140.2697  148.0026  153.8548 C.2     1  UNL1        0.3409
     15 O         139.5139  149.2570  154.1795 O.3     1  UNL1       -0.4451
     16 C         138.7952  149.3816  155.4902 C.3     1  UNL1        0.2134
     17 C         138.8323  148.2519  156.4762 C.3     1  UNL1        0.0740
     18 C         139.5881  146.9976  156.1516 C.ar    1  UNL1       -0.0124
     19 C         139.6251  145.8678  157.1377 C.ar    1  UNL1       -0.0058
     20 C         140.3809  144.6134  156.8130 C.ar    1  UNL1        0.0056
     21 C         141.0996  144.4888  155.5023 C.ar    1  UNL1       -0.0017
     22 C         141.0625  145.6185  154.5162 C.ar    1  UNL1        0.0059
     23 C         140.3067  146.8729  154.8409 C.ar    1  UNL1        0.0718
     24 C         138.5181  138.8142  163.9299 C.3     1  UNL1        0.1131
     25 C         138.8552  139.3010  165.3080 C.ar    1  UNL1        0.0062
     26 C         139.8897  140.3714  165.4933 C.ar    1  UNL1        0.0009
     27 C         140.2268  140.8581  166.8715 C.ar    1  UNL1        0.0386
     28 C         139.5294  140.2746  168.0644 C.ar    1  UNL1        0.1672
     29 N         138.4950  139.2043  167.8792 N.ar    1  UNL1       -0.2252
     30 C         138.1579  138.7175  166.5010 C.ar    1  UNL1        0.0968
     31 N         139.8665  140.7614  169.4426 N.ar    1  UNL1       -0.1708
     32 C         140.0309  142.1939  169.8560 C.ar    1  UNL1        0.2272
     33 N         140.3644  142.2190  171.3183 N.ar    1  UNL1       -0.1044
     34 N         140.4060  140.8019  171.8085 N.ar    1  UNL1       -0.0222
     35 N         140.0983  139.9011  170.6494 N.ar    1  UNL1       -0.0371
@<TRIPOS>BOND
     1    13    14    2
     2    14    15    1
     3    15    16    1
     4    16    17    1
     5    17    18    1
     6    18    19   ar
     7    19    20   ar
     8     1    20    1
     9     1     2    1
    10     2     3    1
    11     3     4    1
    12     4     5    1
    13     5     6    1
    14     6     7   am
    15     7     8    2
    16     7    24    1
    17    24    25    1
    18    25    26   ar
    19    26    27   ar
    20    27    28   ar
    21    28    31    1
    22    31    32   ar
    23    32    33   ar
    24    33    34   ar
    25    34    35   ar
    26    28    29   ar
    27    29    30   ar
    28     6     9    1
    29    10     9    1
    30    10    11    1
    31    11    12    1
    32    20    21   ar
    33    21    22   ar
    34    22    23   ar
    35    23    14    1
    36    23    18   ar
    37    12     1    1
    38    10     3    1
    39    30    25   ar
    40    35    31   ar
@<TRIPOS>MOLECULE
*****
 35 40 0 0 0
SMALL
GASTEIGER

@<TRIPOS>ATOM
      1 C         142.7562  141.0557  164.7330 C.3     1  UNL1        0.1534
      2 C         141.8518  140.2471  163.8509 C.3     1  UNL1        0.1067
      3 N         142.2095  140.0265  162.4110 N.3     1  UNL1       -0.2665
      4 C         141.3050  139.2179  161.5288 C.3     1  UNL1        0.0940
      5 C         141.6628  138.9974  160.0889 C.3     1  UNL1        0.1107
      6 N         142.9249  139.5854  159.5311 N.am    1  UNL1       -0.2764
      7 C         143.2827  139.3649  158.0912 C.2     1  UNL1        0.2302
      8 O         144.5448  139.9529  157.5334 O.2     1  UNL1       -0.2745
      9 C         143.8294  140.3940  160.4132 C.3     1  UNL1        0.1119
     10 C         143.4717  140.6146  161.8532 C.3     1  UNL1        0.1075
     11 C         144.3761  141.4231  162.7353 C.3     1  UNL1        0.1601
     12 O         144.0184  141.6437  164.1752 O.3     1  UNL1       -0.3489
     13 O         142.1909  142.8077  171.3558 O.2     1  UNL1       -0.2449
     14 C         141.3255  141.9380  170.4928 C.2     1  UNL1        0.3409
     15 O         140.1025  141.2889  171.0697 O.3     1  UNL1       -0.4451
     16 C         139.2371  140.4193  170.2067 C.3     1  UNL1        0.2134
     17 C         139.5947  140.1987  168.7667 C.3     1  UNL1        0.0740
     18 C         140.8178  140.8477  168.1899 C.ar    1  UNL1       -0.0124
     19 C         141.1755  140.6272  166.7499 C.ar    1  UNL1       -0.0058
     20 C         142.3985  141.2762  166.1730 C.ar    1  UNL1        0.0056
     21 C         143.2639  142.1459  167.0360 C.ar    1  UNL1       -0.0017
     22 C         142.9063  142.3665  168.4759 C.ar    1  UNL1        0.0059
     23 C         141.6832  141.7174  169.0529 C.ar    1  UNL1        0.0718
     24 C         142.3782  138.5563  157.2090 C.3     1  UNL1        0.1131
     25 C         142.7640  137.1607  156.8174 C.ar    1  UNL1        0.0062
     26 C         142.8494  136.7850  155.3676 C.ar    1  UNL1        0.0009
     27 C         143.2352  135.3895  154.9760 C.ar    1  UNL1        0.0386
     28 C         143.5357  134.3695  156.0340 C.ar    1  UNL1        0.1672
     29 N         143.4503  134.7451  157.4836 N.ar    1  UNL1       -0.2252
     30 C         143.0645  136.1407  157.8754 C.ar    1  UNL1        0.0968
     31 N         143.9215  132.9739  155.6423 N.ar    1  UNL1       -0.1708
     32 C         143.2837  132.1535  154.5605 C.ar    1  UNL1        0.2272
     33 N         143.9809  130.8262  154.5133 N.ar    1  UNL1       -0.1044
     34 N         145.0496  130.8263  155.5659 N.ar    1  UNL1       -0.0222
     35 N         145.0129  132.1536  156.2636 N.ar    1  UNL1       -0.0371
@<TRIPOS>BOND
     1    13    14    2
     2    14    15    1
     3    15    16    1
     4    16    17    1
     5    17    18    1
     6    18    19   ar
     7    19    20   ar
     8     1    20    1
     9     1     2    1
    10     2     3    1
    11     3     4    1
    12     4     5    1
    13     5     6    1
    14     6     7   am
    15     7     8    2
    16     7    24    1
    17    24    25    1
    18    25    26   ar
    19    26    27   ar
    20    27    28   ar
    21    28    31    1
    22    31    32   ar
    23    32    33   ar
    24    33    34   ar
    25    34    35   ar
    26    28    29   ar
    27    29    30   ar
    28     6     9    1
    29    10     9    1
    30    10    11    1
    31    11    12    1
    32    20    21   ar
    33    21    22   ar
    34    22    23   ar
    35    23    14    1
    36    23    18   ar
    37    12     1    1
    38    10     3    1
    39    30    25   ar
    40    35    31   ar
@<TRIPOS>MOLECULE
*****
 35 40 0 0 0
SMALL
GASTEIGER

@<TRIPOS>ATOM
      1 C         141.1518  139.3948  164.4710 C.3     1  UNL1        0.1534
      2 C         141.3412  140.5755  163.5655 C.3     1  UNL1        0.1067
      3 N         141.8090  140.3716  162.1550 N.3     1  UNL1       -0.2665
      4 C         141.9984  141.5523  161.2495 C.3     1  UNL1        0.0940
      5 C         142.4663  141.3483  159.8390 C.3     1  UNL1        0.1107
      6 N         142.7447  139.9636  159.3340 N.am    1  UNL1       -0.2764
      7 C         143.2126  139.7596  157.9236 C.2     1  UNL1        0.2302
      8 O         143.4911  138.3749  157.4186 O.2     1  UNL1       -0.2745
      9 C         142.5554  138.7829  160.2395 C.3     1  UNL1        0.1119
     10 C         142.0875  138.9868  161.6501 C.3     1  UNL1        0.1075
     11 C         141.8982  137.8061  162.5556 C.3     1  UNL1        0.1601
     12 O         141.4303  138.0101  163.9660 O.3     1  UNL1       -0.3489
     13 O         137.8438  139.9669  170.4693 O.2     1  UNL1       -0.2449
     14 C         139.2803  140.2106  170.1130 C.2     1  UNL1        0.3409
     15 O         140.2490  140.6582  171.1672 O.3     1  UNL1       -0.4451
     16 C         141.6855  140.9020  170.8109 C.3     1  UNL1        0.2134
     17 C         142.1534  140.6980  169.4004 C.3     1  UNL1        0.0740
     18 C         141.1847  140.2504  168.3463 C.ar    1  UNL1       -0.0124
     19 C         141.6526  140.0464  166.9357 C.ar    1  UNL1       -0.0058
     20 C         140.6840  139.5988  165.8816 C.ar    1  UNL1        0.0056
     21 C         139.2474  139.3551  166.2379 C.ar    1  UNL1       -0.0017
     22 C         138.7795  139.5590  167.6483 C.ar    1  UNL1        0.0059
     23 C         139.7482  140.0067  168.7026 C.ar    1  UNL1        0.0718
     24 C         143.4020  140.9404  157.0180 C.3     1  UNL1        0.1131
     25 C         144.7578  141.2410  156.4511 C.ar    1  UNL1        0.0062
     26 C         145.6729  142.1944  157.1609 C.ar    1  UNL1        0.0009
     27 C         147.0287  142.4950  156.5941 C.ar    1  UNL1        0.0386
     28 C         147.4695  141.8422  155.3175 C.ar    1  UNL1        0.1672
     29 N         146.5545  140.8889  154.6078 N.ar    1  UNL1       -0.2252
     30 C         145.1986  140.5882  155.1746 C.ar    1  UNL1        0.0968
     31 N         148.8253  142.1429  154.7507 N.ar    1  UNL1       -0.1708
     32 C         149.1123  143.0242  153.5713 C.ar    1  UNL1        0.2272
     33 N         150.5966  143.0410  153.3554 N.ar    1  UNL1       -0.1044
     34 N         151.2270  142.1700  154.4014 N.ar    1  UNL1       -0.0222
     35 N         150.1323  141.6149  155.2637 N.ar    1  UNL1       -0.0371
@<TRIPOS>BOND
     1    13    14    2
     2    14    15    1
     3    15    16    1
     4    16    17    1
     5    17    18    1
     6    18    19   ar
     7    19    20   ar
     8     1    20    1
     9     1     2    1
    10     2     3    1
    11     3     4    1
    12     4     5    1
    13     5     6    1
    14     6     7   am
    15     7     8    2
    16     7    24    1
    17    24    25    1
    18    25    26   ar
    19    26    27   ar
    20    27    28   ar
    21    28    31    1
    22    31    32   ar
    23    32    33   ar
    24    33    34   ar
    25    34    35   ar
    26    28    29   ar
    27    29    30   ar
    28     6     9    1
    29    10     9    1
    30    10    11    1
    31    11    12    1
    32    20    21   ar
    33    21    22   ar
    34    22    23   ar
    35    23    14    1
    36    23    18   ar
    37    12     1    1
    38    10     3    1
    39    30    25   ar
    40    35    31   ar
@<TRIPOS>MOLECULE
*****
 35 40 0 0 0
SMALL
GASTEIGER

@<TRIPOS>ATOM
      1 C         142.4412  137.6346  157.5812 C.3     1  UNL1        0.1534
      2 C         142.9721  137.2728  158.9366 C.3     1  UNL1        0.1067
      3 N         143.1881  138.3412  159.9671 N.3     1  UNL1       -0.2665
      4 C         143.7190  137.9794  161.3226 C.3     1  UNL1        0.0940
      5 C         143.9350  139.0478  162.3531 C.3     1  UNL1        0.1107
      6 N         143.6201  140.4779  162.0281 N.am    1  UNL1       -0.2764
      7 C         143.8361  141.5462  163.0586 C.2     1  UNL1        0.2302
      8 O         143.5211  142.9763  162.7337 O.2     1  UNL1       -0.2745
      9 C         143.0892  140.8397  160.6727 C.3     1  UNL1        0.1119
     10 C         142.8731  139.7713  159.6421 C.3     1  UNL1        0.1075
     11 C         142.3422  140.1331  158.2867 C.3     1  UNL1        0.1601
     12 O         142.1262  139.0647  157.2563 O.3     1  UNL1       -0.3489
     13 O         140.5539  133.5564  152.3795 O.2     1  UNL1       -0.2449
     14 C         141.5771  133.3613  153.4589 C.2     1  UNL1        0.3409
     15 O         142.3842  132.0980  153.5078 O.3     1  UNL1       -0.4451
     16 C         143.4074  131.9029  154.5872 C.3     1  UNL1        0.2134
     17 C         143.6234  132.9712  155.6177 C.3     1  UNL1        0.0740
     18 C         142.8163  134.2345  155.5689 C.ar    1  UNL1       -0.0124
     19 C         143.0323  135.3029  156.5995 C.ar    1  UNL1       -0.0058
     20 C         142.2252  136.5662  156.5506 C.ar    1  UNL1        0.0056
     21 C         141.2020  136.7613  155.4712 C.ar    1  UNL1       -0.0017
     22 C         140.9860  135.6930  154.4407 C.ar    1  UNL1        0.0059
     23 C         141.7931  134.4296  154.4895 C.ar    1  UNL1        0.0718
     24 C         144.3670  141.1845  164.4141 C.3     1  UNL1        0.1131
     25 C         143.4184  140.9319  165.5483 C.ar    1  UNL1        0.0062
     26 C         143.0874  139.5251  165.9501 C.ar    1  UNL1        0.0009
     27 C         142.1388  139.2725  167.0842 C.ar    1  UNL1        0.0386
     28 C         141.5212  140.4267  167.8166 C.ar    1  UNL1        0.1672
     29 N         141.8521  141.8335  167.4148 N.ar    1  UNL1       -0.2252
     30 C         142.8008  142.0861  166.2806 C.ar    1  UNL1        0.0968
     31 N         140.5726  140.1741  168.9507 N.ar    1  UNL1       -0.1708
     32 C         140.9375  140.0896  170.4032 C.ar    1  UNL1        0.2272
     33 N         139.6829  139.8250  171.1817 N.ar    1  UNL1       -0.1044
     34 N         138.5426  139.7460  170.2103 N.ar    1  UNL1       -0.0222
     35 N         139.0924  139.9617  168.8316 N.ar    1  UNL1       -0.0371
@<TRIPOS>BOND
     1    13    14    2
     2    14    15    1
     3    15    16    1
     4    16    17    1
     5    17    18    1
     6    18    19   ar
     7    19    20   ar
     8     1    20    1
     9     1     2    1
    10     2     3    1
    11     3     4    1
    12     4     5    1
    13     5     6    1
    14     6     7   am
    15     7     8    2
    16     7    24    1
    17    24    25    1
    18    25    26   ar
    19    26    27   ar
    20    27    28   ar
    21    28    31    1
    22    31    32   ar
    23    32    33   ar
    24    33    34   ar
    25    34    35   ar
    26    28    29   ar
    27    29    30   ar
    28     6     9    1
    29    10     9    1
    30    10    11    1
    31    11    12    1
    32    20    21   ar
    33    21    22   ar
    34    22    23   ar
    35    23    14    1
    36    23    18   ar
    37    12     1    1
    38    10     3    1
    39    30    25   ar
    40    35    31   ar
@<TRIPOS>MOLECULE
*****
 35 40 0 0 0
SMALL
GASTEIGER

@<TRIPOS>ATOM
      1 C         142.5648  143.3552  158.5490 C.3     1  UNL1        0.1534
      2 C         141.5897  142.6892  159.4740 C.3     1  UNL1        0.1067
      3 N         142.0889  141.8337  160.6004 N.3     1  UNL1       -0.2665
      4 C         141.1138  141.1676  161.5254 C.3     1  UNL1        0.0940
      5 C         141.6130  140.3122  162.6519 C.3     1  UNL1        0.1107
      6 N         143.0873  140.1228  162.8534 N.am    1  UNL1       -0.2764
      7 C         143.5865  139.2673  163.9799 C.2     1  UNL1        0.2302
      8 O         145.0608  139.0779  164.1814 O.2     1  UNL1       -0.2745
      9 C         144.0624  140.7888  161.9285 C.3     1  UNL1        0.1119
     10 C         143.5632  141.6443  160.8020 C.3     1  UNL1        0.1075
     11 C         144.5383  142.3104  159.8770 C.3     1  UNL1        0.1601
     12 O         144.0391  143.1658  158.7506 O.3     1  UNL1       -0.3489
     13 O         141.1416  146.6143  152.6665 O.2     1  UNL1       -0.2449
     14 C         140.5682  146.7772  154.0430 C.2     1  UNL1        0.3409
     15 O         139.4956  147.7955  154.2929 O.3     1  UNL1       -0.4451
     16 C         138.9222  147.9584  155.6694 C.3     1  UNL1        0.2134
     17 C         139.4213  147.1030  156.7959 C.3     1  UNL1        0.0740
     18 C         140.4939  146.0846  156.5459 C.ar    1  UNL1       -0.0124
     19 C         140.9930  145.2291  157.6725 C.ar    1  UNL1       -0.0058
     20 C         142.0656  144.2108  157.4225 C.ar    1  UNL1        0.0056
     21 C         142.6390  144.0479  156.0461 C.ar    1  UNL1       -0.0017
     22 C         142.1399  144.9033  154.9196 C.ar    1  UNL1        0.0059
     23 C         141.0673  145.9217  155.1695 C.ar    1  UNL1        0.0718
     24 C         142.6114  138.6012  164.9049 C.3     1  UNL1        0.1131
     25 C         142.1570  139.3051  166.1491 C.ar    1  UNL1        0.0062
     26 C         143.0003  139.2564  167.3887 C.ar    1  UNL1        0.0009
     27 C         142.5460  139.9603  168.6329 C.ar    1  UNL1        0.0386
     28 C         141.2484  140.7129  168.6375 C.ar    1  UNL1        0.1672
     29 N         140.4052  140.7616  167.3980 N.ar    1  UNL1       -0.2252
     30 C         140.8595  140.0577  166.1537 C.ar    1  UNL1        0.0968
     31 N         140.7941  141.4168  169.8817 N.ar    1  UNL1       -0.1708
     32 C         139.8043  142.5421  169.9467 C.ar    1  UNL1        0.2272
     33 N         139.6483  142.9398  171.3845 N.ar    1  UNL1       -0.1044
     34 N         140.5416  142.0603  172.2083 N.ar    1  UNL1       -0.0222
     35 N         141.2498  141.1191  171.2796 N.ar    1  UNL1       -0.0371
@<TRIPOS>BOND
     1    13    14    2
     2    14    15    1
     3    15    16    1
     4    16    17    1
     5    17    18    1
     6    18    19   ar
     7    19    20   ar
     8     1    20    1
     9     1     2    1
    10     2     3    1
    11     3     4    1
    12     4     5    1
    13     5     6    1
    14     6     7   am
    15     7     8    2
    16     7    24    1
    17    24    25    1
    18    25    26   ar
    19    26    27   ar
    20    27    28   ar
    21    28    31    1
    22    31    32   ar
    23    32    33   ar
    24    33    34   ar
    25    34    35   ar
    26    28    29   ar
    27    29    30   ar
    28     6     9    1
    29    10     9    1
    30    10    11    1
    31    11    12    1
    32    20    21   ar
    33    21    22   ar
    34    22    23   ar
    35    23    14    1
    36    23    18   ar
    37    12     1    1
    38    10     3    1
    39    30    25   ar
    40    35    31   ar
@<TRIPOS>MOLECULE
*****
 35 40 0 0 0
SMALL
GASTEIGER

@<TRIPOS>ATOM
      1 C         139.1207  140.4042  164.2452 C.3     1  UNL1        0.1534
      2 C         140.2962  140.0929  163.3671 C.3     1  UNL1        0.1067
      3 N         140.1153  139.9858  161.8819 N.3     1  UNL1       -0.2665
      4 C         141.2909  139.6744  161.0037 C.3     1  UNL1        0.0940
      5 C         141.1100  139.5673  159.5185 C.3     1  UNL1        0.1107
      6 N         139.7536  139.7715  158.9115 N.am    1  UNL1       -0.2764
      7 C         139.5727  139.6643  157.4264 C.2     1  UNL1        0.2302
      8 O         138.2163  139.8685  156.8193 O.2     1  UNL1       -0.2745
      9 C         138.5781  140.0828  159.7897 C.3     1  UNL1        0.1119
     10 C         138.7589  140.1899  161.2749 C.3     1  UNL1        0.1075
     11 C         137.5834  140.5013  162.1531 C.3     1  UNL1        0.1601
     12 O         137.7643  140.6084  163.6382 O.3     1  UNL1       -0.3489
     13 O         139.3394  139.7421  171.0837 O.2     1  UNL1       -0.2449
     14 C         139.8441  140.8328  170.1861 C.2     1  UNL1        0.3409
     15 O         140.5296  142.0306  170.7736 O.3     1  UNL1       -0.4451
     16 C         141.0343  143.1213  169.8760 C.3     1  UNL1        0.2134
     17 C         140.8535  143.0142  168.3909 C.3     1  UNL1        0.0740
     18 C         140.1680  141.8164  167.8033 C.ar    1  UNL1       -0.0124
     19 C         139.9871  141.7092  166.3181 C.ar    1  UNL1       -0.0058
     20 C         139.3016  140.5114  165.7305 C.ar    1  UNL1        0.0056
     21 C         138.7969  139.4207  166.6281 C.ar    1  UNL1       -0.0017
     22 C         138.9777  139.5278  168.1133 C.ar    1  UNL1        0.0059
     23 C         139.6633  140.7257  168.7009 C.ar    1  UNL1        0.0718
     24 C         140.7483  139.3530  156.5481 C.3     1  UNL1        0.1131
     25 C         141.2018  137.9335  156.3775 C.ar    1  UNL1        0.0062
     26 C         142.5318  137.5007  156.9197 C.ar    1  UNL1        0.0009
     27 C         142.9854  136.0812  156.7490 C.ar    1  UNL1        0.0386
     28 C         142.1090  135.0943  156.0361 C.ar    1  UNL1        0.1672
     29 N         140.7791  135.5270  155.4939 N.ar    1  UNL1       -0.2252
     30 C         140.3255  136.9466  155.6646 C.ar    1  UNL1        0.0968
     31 N         142.5626  133.6748  155.8655 N.ar    1  UNL1       -0.1708
     32 C         143.9643  133.1700  156.0402 C.ar    1  UNL1        0.2272
     33 N         143.9621  131.6940  155.7728 N.ar    1  UNL1       -0.1044
     34 N         142.5590  131.2867  155.4328 N.ar    1  UNL1       -0.0222
     35 N         141.6941  132.5108  155.4900 N.ar    1  UNL1       -0.0371
@<TRIPOS>BOND
     1    13    14    2
     2    14    15    1
     3    15    16    1
     4    16    17    1
     5    17    18    1
     6    18    19   ar
     7    19    20   ar
     8     1    20    1
     9     1     2    1
    10     2     3    1
    11     3     4    1
    12     4     5    1
    13     5     6    1
    14     6     7   am
    15     7     8    2
    16     7    24    1
    17    24    25    1
    18    25    26   ar
    19    26    27   ar
    20    27    28   ar
    21    28    31    1
    22    31    32   ar
    23    32    33   ar
    24    33    34   ar
    25    34    35   ar
    26    28    29   ar
    27    29    30   ar
    28     6     9    1
    29    10     9    1
    30    10    11    1
    31    11    12    1
    32    20    21   ar
    33    21    22   ar
    34    22    23   ar
    35    23    14    1
    36    23    18   ar
    37    12     1    1
    38    10     3    1
    39    30    25   ar
    40    35    31   ar
