@<TRIPOS>MOLECULE
*****
 15 16 0 0 0
SMALL
GASTEIGER

@<TRIPOS>ATOM
      1 O         144.4621  142.8388  169.8952 O.2     1  UNL1       -0.2647
      2 C         143.1563  142.1494  169.6316 C.2     1  UNL1        0.3026
      3 N         142.8674  141.5843  168.2725 N.am    1  UNL1       -0.1769
      4 C         141.5616  140.8949  168.0089 C.2     1  UNL1        0.0568
      5 C         141.2728  140.3298  166.6497 C.3     1  UNL1        0.0716
      6 C         139.9669  139.6404  166.3861 C.2     1  UNL1        0.0105
      7 C         138.9499  139.5160  167.4817 C.2     1  UNL1        0.1468
      8 F         137.6441  138.8266  167.2181 F       1  UNL1       -0.2036
      9 C         139.2388  140.0811  168.8408 C.2     1  UNL1        0.0857
     10 CL        138.2218  139.9567  169.9363 Cl      1  UNL1       -0.0799
     11 C         140.5446  140.7705  169.1044 C.2     1  UNL1        0.0275
     12 C         140.8334  141.3356  170.4635 C.2     1  UNL1        0.0433
     13 C         142.1393  142.0250  170.7271 C.2     1  UNL1        0.1897
     14 O         142.4281  142.5901  172.0863 O.2     1  UNL1       -0.5018
     15 H         141.7928  142.5124  172.7706 H       1  UNL1        0.2924
@<TRIPOS>BOND
     1     1     2    2
     2     2     3    1
     3     3     4    2
     4     4     5    1
     5     5     6    1
     6     6     7    2
     7     7     8    1
     8     7     9    1
     9     9    10    1
    10     9    11    2
    11    11    12    1
    12    12    13    2
    13    13    14    1
    14    13     2    1
    15    11     4    1
    16    14    15    1
@<TRIPOS>MOLECULE
*****
 15 16 0 0 0
SMALL
GASTEIGER

@<TRIPOS>ATOM
      1 O         141.0104  142.1394  171.7462 O.2     1  UNL1       -0.2647
      2 C         140.5788  141.6709  170.3881 C.2     1  UNL1        0.3026
      3 N         140.7915  142.5476  169.1898 N.am    1  UNL1       -0.1769
      4 C         140.3599  142.0791  167.8317 C.2     1  UNL1        0.0568
      5 C         140.5726  142.9559  166.6333 C.3     1  UNL1        0.0716
      6 C         140.1410  142.4874  165.2752 C.2     1  UNL1        0.0105
      7 C         139.4967  141.1422  165.1156 C.2     1  UNL1        0.1468
      8 F         139.0651  140.6738  163.7576 F       1  UNL1       -0.2036
      9 C         139.2840  140.2655  166.3140 C.2     1  UNL1        0.0857
     10 CL        138.6397  138.9204  166.1544 Cl      1  UNL1       -0.0799
     11 C         139.7156  140.7340  167.6721 C.2     1  UNL1        0.0275
     12 C         139.5030  139.8573  168.8705 C.2     1  UNL1        0.0433
     13 C         139.9346  140.3258  170.2285 C.2     1  UNL1        0.1897
     14 O         139.7219  139.4490  171.4269 O.2     1  UNL1       -0.5018
     15 H         139.3194  138.6088  171.3272 H       1  UNL1        0.2924
@<TRIPOS>BOND
     1     1     2    2
     2     2     3    1
     3     3     4    2
     4     4     5    1
     5     5     6    1
     6     6     7    2
     7     7     8    1
     8     7     9    1
     9     9    10    1
    10     9    11    2
    11    11    12    1
    12    12    13    2
    13    13    14    1
    14    13     2    1
    15    11     4    1
    16    14    15    1
@<TRIPOS>MOLECULE
*****
 15 16 0 0 0
SMALL
GASTEIGER

@<TRIPOS>ATOM
      1 O         140.4780  142.1912  172.2297 O.2     1  UNL1       -0.2647
      2 C         140.8920  141.9760  170.8041 C.2     1  UNL1        0.3026
      3 N         140.0431  141.1376  169.8950 N.am    1  UNL1       -0.1769
      4 C         140.4570  140.9224  168.4694 C.2     1  UNL1        0.0568
      5 C         139.6080  140.0840  167.5603 C.3     1  UNL1        0.0716
      6 C         140.0219  139.8688  166.1347 C.2     1  UNL1        0.0105
      7 C         141.2849  140.4920  165.6182 C.2     1  UNL1        0.1468
      8 F         141.6988  140.2768  164.1926 F       1  UNL1       -0.2036
      9 C         142.1338  141.3303  166.5273 C.2     1  UNL1        0.0857
     10 CL        143.3966  141.9535  166.0107 Cl      1  UNL1       -0.0799
     11 C         141.7198  141.5456  167.9529 C.2     1  UNL1        0.0275
     12 C         142.5687  142.3839  168.8619 C.2     1  UNL1        0.0433
     13 C         142.1548  142.5991  170.2875 C.2     1  UNL1        0.1897
     14 O         143.0038  143.4376  171.1966 O.2     1  UNL1       -0.5018
     15 H         143.7927  143.8268  170.8739 H       1  UNL1        0.2924
@<TRIPOS>BOND
     1     1     2    2
     2     2     3    1
     3     3     4    2
     4     4     5    1
     5     5     6    1
     6     6     7    2
     7     7     8    1
     8     7     9    1
     9     9    10    1
    10     9    11    2
    11    11    12    1
    12    12    13    2
    13    13    14    1
    14    13     2    1
    15    11     4    1
    16    14    15    1
@<TRIPOS>MOLECULE
*****
 15 16 0 0 0
SMALL
GASTEIGER

@<TRIPOS>ATOM
      1 O         139.1586  146.5420  161.2499 O.2     1  UNL1       -0.2647
      2 C         139.7389  145.6050  162.2673 C.2     1  UNL1        0.3026
      3 N         141.2104  145.6303  162.5570 N.am    1  UNL1       -0.1769
      4 C         141.7908  144.6933  163.5745 C.2     1  UNL1        0.0568
      5 C         143.2624  144.7186  163.8641 C.3     1  UNL1        0.0716
      6 C         143.8427  143.7816  164.8816 C.2     1  UNL1        0.0105
      7 C         142.9514  142.8193  165.6094 C.2     1  UNL1        0.1468
      8 F         143.5318  141.8823  166.6269 F       1  UNL1       -0.2036
      9 C         141.4799  142.7940  165.3197 C.2     1  UNL1        0.0857
     10 CL        140.5887  141.8318  166.0476 Cl      1  UNL1       -0.0799
     11 C         140.8996  143.7310  164.3023 C.2     1  UNL1        0.0275
     12 C         139.4281  143.7057  164.0126 C.2     1  UNL1        0.0433
     13 C         138.8477  144.6427  162.9951 C.2     1  UNL1        0.1897
     14 O         137.3761  144.6174  162.7055 O.2     1  UNL1       -0.5018
     15 H         136.8194  144.0163  163.1602 H       1  UNL1        0.2924
@<TRIPOS>BOND
     1     1     2    2
     2     2     3    1
     3     3     4    2
     4     4     5    1
     5     5     6    1
     6     6     7    2
     7     7     8    1
     8     7     9    1
     9     9    10    1
    10     9    11    2
    11    11    12    1
    12    12    13    2
    13    13    14    1
    14    13     2    1
    15    11     4    1
    16    14    15    1
@<TRIPOS>MOLECULE
*****
 15 16 0 0 0
SMALL
GASTEIGER

@<TRIPOS>ATOM
      1 O         138.0252  143.4357  161.5942 O.2     1  UNL1       -0.2647
      2 C         138.2894  142.6083  162.8171 C.2     1  UNL1        0.3026
      3 N         139.1184  143.1666  163.9356 N.am    1  UNL1       -0.1769
      4 C         139.3826  142.3392  165.1586 C.2     1  UNL1        0.0568
      5 C         140.2116  142.8976  166.2771 C.3     1  UNL1        0.0716
      6 C         140.4758  142.0702  167.5001 C.2     1  UNL1        0.0105
      7 C         139.9111  140.6844  167.6045 C.2     1  UNL1        0.1468
      8 F         140.1753  139.8571  168.8275 F       1  UNL1       -0.2036
      9 C         139.0822  140.1261  166.4860 C.2     1  UNL1        0.0857
     10 CL        138.5175  138.7405  166.5904 Cl      1  UNL1       -0.0799
     11 C         138.8179  140.9535  165.2630 C.2     1  UNL1        0.0275
     12 C         137.9890  140.3952  164.1445 C.2     1  UNL1        0.0433
     13 C         137.7248  141.2226  162.9216 C.2     1  UNL1        0.1897
     14 O         136.8958  140.6642  161.8030 O.2     1  UNL1       -0.5018
     15 H         136.5430  139.7986  161.8683 H       1  UNL1        0.2924
@<TRIPOS>BOND
     1     1     2    2
     2     2     3    1
     3     3     4    2
     4     4     5    1
     5     5     6    1
     6     6     7    2
     7     7     8    1
     8     7     9    1
     9     9    10    1
    10     9    11    2
    11    11    12    1
    12    12    13    2
    13    13    14    1
    14    13     2    1
    15    11     4    1
    16    14    15    1
@<TRIPOS>MOLECULE
*****
 15 16 0 0 0
SMALL
GASTEIGER

@<TRIPOS>ATOM
      1 O         138.4398  143.2412  159.7734 O.2     1  UNL1       -0.2647
      2 C         138.4499  142.2856  160.9295 C.2     1  UNL1        0.3026
      3 N         138.9409  140.8814  160.7376 N.am    1  UNL1       -0.1769
      4 C         138.9510  139.9258  161.8938 C.2     1  UNL1        0.0568
      5 C         139.4421  138.5214  161.7018 C.3     1  UNL1        0.0716
      6 C         139.4521  137.5658  162.8580 C.2     1  UNL1        0.0105
      7 C         138.9711  138.0146  164.2061 C.2     1  UNL1        0.1468
      8 F         138.9812  137.0590  165.3623 F       1  UNL1       -0.2036
      9 C         138.4801  139.4188  164.3980 C.2     1  UNL1        0.0857
     10 CL        137.9991  139.8675  165.7461 Cl      1  UNL1       -0.0799
     11 C         138.4700  140.3744  163.2419 C.2     1  UNL1        0.0275
     12 C         137.9790  141.7787  163.4338 C.2     1  UNL1        0.0433
     13 C         137.9689  142.7343  162.2776 C.2     1  UNL1        0.1897
     14 O         137.4779  144.1386  162.4695 O.2     1  UNL1       -0.5018
     15 H         137.1774  144.4189  163.3117 H       1  UNL1        0.2924
@<TRIPOS>BOND
     1     1     2    2
     2     2     3    1
     3     3     4    2
     4     4     5    1
     5     5     6    1
     6     6     7    2
     7     7     8    1
     8     7     9    1
     9     9    10    1
    10     9    11    2
    11    11    12    1
    12    12    13    2
    13    13    14    1
    14    13     2    1
    15    11     4    1
    16    14    15    1
@<TRIPOS>MOLECULE
*****
 15 16 0 0 0
SMALL
GASTEIGER

@<TRIPOS>ATOM
      1 O         137.8126  143.8361  162.1070 O.2     1  UNL1       -0.2647
      2 C         138.4055  143.2655  163.3612 C.2     1  UNL1        0.3026
      3 N         138.0278  141.8844  163.8085 N.am    1  UNL1       -0.1769
      4 C         138.6206  141.3138  165.0626 C.2     1  UNL1        0.0568
      5 C         138.2429  139.9327  165.5099 C.3     1  UNL1        0.0716
      6 C         138.8357  139.3621  166.7640 C.2     1  UNL1        0.0105
      7 C         139.8064  140.1726  167.5709 C.2     1  UNL1        0.1468
      8 F         140.3992  139.6020  168.8251 F       1  UNL1       -0.2036
      9 C         140.1841  141.5537  167.1237 C.2     1  UNL1        0.0857
     10 CL        141.1547  142.3641  167.9306 Cl      1  UNL1       -0.0799
     11 C         139.5912  142.1243  165.8695 C.2     1  UNL1        0.0275
     12 C         139.9689  143.5053  165.4223 C.2     1  UNL1        0.0433
     13 C         139.3761  144.0759  164.1681 C.2     1  UNL1        0.1897
     14 O         139.7538  145.4570  163.7209 O.2     1  UNL1       -0.5018
     15 H         140.3601  145.9632  164.2249 H       1  UNL1        0.2924
@<TRIPOS>BOND
     1     1     2    2
     2     2     3    1
     3     3     4    2
     4     4     5    1
     5     5     6    1
     6     6     7    2
     7     7     8    1
     8     7     9    1
     9     9    10    1
    10     9    11    2
    11    11    12    1
    12    12    13    2
    13    13    14    1
    14    13     2    1
    15    11     4    1
    16    14    15    1
@<TRIPOS>MOLECULE
*****
 15 16 0 0 0
SMALL
GASTEIGER

@<TRIPOS>ATOM
      1 O         138.7379  145.1305  165.2201 O.2     1  UNL1       -0.2647
      2 C         138.6058  143.7473  164.6552 C.2     1  UNL1        0.3026
      3 N         139.1093  142.5680  165.4334 N.am    1  UNL1       -0.1769
      4 C         138.9771  141.1848  164.8685 C.2     1  UNL1        0.0568
      5 C         139.4807  140.0054  165.6468 C.3     1  UNL1        0.0716
      6 C         139.3485  138.6222  165.0819 C.2     1  UNL1        0.0105
      7 C         138.7128  138.4183  163.7386 C.2     1  UNL1        0.1468
      8 F         138.5806  137.0350  163.1736 F       1  UNL1       -0.2036
      9 C         138.2092  139.5975  162.9603 C.2     1  UNL1        0.0857
     10 CL        137.5735  139.3936  161.6171 Cl      1  UNL1       -0.0799
     11 C         138.3414  140.9808  163.5253 C.2     1  UNL1        0.0275
     12 C         137.8379  142.1600  162.7470 C.2     1  UNL1        0.0433
     13 C         137.9701  143.5433  163.3120 C.2     1  UNL1        0.1897
     14 O         137.4665  144.7226  162.5336 O.2     1  UNL1       -0.5018
     15 H         137.0694  144.5952  161.6946 H       1  UNL1        0.2924
@<TRIPOS>BOND
     1     1     2    2
     2     2     3    1
     3     3     4    2
     4     4     5    1
     5     5     6    1
     6     6     7    2
     7     7     8    1
     8     7     9    1
     9     9    10    1
    10     9    11    2
    11    11    12    1
    12    12    13    2
    13    13    14    1
    14    13     2    1
    15    11     4    1
    16    14    15    1
@<TRIPOS>MOLECULE
*****
 15 16 0 0 0
SMALL
GASTEIGER

@<TRIPOS>ATOM
      1 O         137.3179  144.6215  162.8453 O.2     1  UNL1       -0.2647
      2 C         138.7867  144.5582  163.1430 C.2     1  UNL1        0.3026
      3 N         139.3009  143.6065  164.1821 N.am    1  UNL1       -0.1769
      4 C         140.7697  143.5432  164.4798 C.2     1  UNL1        0.0568
      5 C         141.2840  142.5915  165.5190 C.3     1  UNL1        0.0716
      6 C         142.7528  142.5282  165.8167 C.2     1  UNL1        0.0105
      7 C         143.7073  143.4166  165.0752 C.2     1  UNL1        0.1468
      8 F         145.1761  143.3533  165.3730 F       1  UNL1       -0.2036
      9 C         143.1930  144.3683  164.0361 C.2     1  UNL1        0.0857
     10 CL        144.1475  145.2566  163.2948 Cl      1  UNL1       -0.0799
     11 C         141.7242  144.4316  163.7384 C.2     1  UNL1        0.0275
     12 C         141.2099  145.3833  162.6993 C.2     1  UNL1        0.0433
     13 C         139.7412  145.4466  162.4016 C.2     1  UNL1        0.1897
     14 O         139.2269  146.3983  161.3624 O.2     1  UNL1       -0.5018
     15 H         139.8231  146.9532  160.8993 H       1  UNL1        0.2924
@<TRIPOS>BOND
     1     1     2    2
     2     2     3    1
     3     3     4    2
     4     4     5    1
     5     5     6    1
     6     6     7    2
     7     7     8    1
     8     7     9    1
     9     9    10    1
    10     9    11    2
    11    11    12    1
    12    12    13    2
    13    13    14    1
    14    13     2    1
    15    11     4    1
    16    14    15    1
