@<TRIPOS>MOLECULE
*****
 34 37 0 0 0
SMALL
GASTEIGER

@<TRIPOS>ATOM
      1 C         141.6135  138.8807  165.1228 C.ar    1  UNL1        0.0576
      2 C         140.9004  138.2721  163.9520 C.ar    1  UNL1        0.0386
      3 C         139.4136  138.0788  163.9971 C.ar    1  UNL1        0.1286
      4 N         138.6398  138.4943  165.2131 N.ar    1  UNL1       -0.2309
      5 C         139.3529  139.1029  166.3841 C.ar    1  UNL1        0.0829
      6 C         138.5792  139.5183  167.6001 C.ar    1  UNL1        0.0200
      7 C         139.2923  140.1270  168.7710 C.ar    1  UNL1        0.0129
      8 C         140.7791  140.3202  168.7259 C.ar    1  UNL1        0.0578
      9 CL        141.4922  140.9289  169.8968 Cl      1  UNL1       -0.0822
     10 C         141.5528  139.9048  167.5098 C.ar    1  UNL1        0.0130
     11 C         140.8397  139.2961  166.3390 C.ar    1  UNL1        0.0230
     12 O         143.9905  138.2529  165.9629 O.2     1  UNL1       -0.2701
     13 C         143.1003  139.0739  165.0777 C.2     1  UNL1        0.2460
     14 N         143.6969  140.0881  164.1474 N.am    1  UNL1       -0.2994
     15 H         143.1126  140.6269  163.5665 H       1  UNL1        0.1498
     16 C         145.1837  140.2813  164.1023 C.3     1  UNL1        0.1070
     17 C         145.7584  141.5535  163.5534 C.3     1  UNL1        0.0936
     18 N         144.9676  142.8261  163.6255 N.3     1  UNL1       -0.2712
     19 C         144.4378  143.6024  162.4565 C.3     1  UNL1        0.0722
     20 C         143.7105  144.8019  162.9879 C.3     1  UNL1        0.0188
     21 C         143.7909  144.7670  164.4853 C.3     1  UNL1        0.0188
     22 C         144.5678  143.5459  164.8795 C.3     1  UNL1        0.0722
     23 N         138.7005  137.4702  162.8261 N.pl3   1  UNL1       -0.3181
     24 H         138.2641  136.5924  162.9175 H       1  UNL1        0.1482
     25 C         138.6522  138.1989  161.5159 C.3     1  UNL1        0.0882
     26 C         137.5663  139.2000  161.2541 C.3     1  UNL1        0.0226
     27 C         137.7920  140.6499  161.5654 C.3     1  UNL1        0.0191
     28 C         137.4513  141.1873  162.9238 C.3     1  UNL1        0.0723
     29 N         138.3853  142.1400  163.6093 N.3     1  UNL1       -0.2685
     30 C         139.8403  141.7999  163.7406 C.3     1  UNL1        0.1046
     31 C         140.7743  142.7527  164.4262 C.3     1  UNL1        0.1595
     32 O         140.2532  144.0455  164.9805 O.3     1  UNL1       -0.3508
     33 C         138.7982  144.3855  164.8492 C.3     1  UNL1        0.1595
     34 C         137.8642  143.4328  164.1636 C.3     1  UNL1        0.1046
@<TRIPOS>BOND
     1    12    13    2
     2    13    14   am
     3    14    16    1
     4    16    17    1
     5    17    18    1
     6    18    19    1
     7    19    20    1
     8    20    21    1
     9    21    22    1
    10    13     1    1
    11     1     2   ar
    12     2     3   ar
    13     3    23    1
    14    23    25    1
    15    25    26    1
    16    26    27    1
    17    27    28    1
    18    28    29    1
    19    29    30    1
    20    30    31    1
    21    31    32    1
    22    32    33    1
    23    33    34    1
    24     3     4   ar
    25     4     5   ar
    26     5     6   ar
    27     6     7   ar
    28     7     8   ar
    29     8     9    1
    30     8    10   ar
    31    10    11   ar
    32    22    18    1
    33    11     1   ar
    34    34    29    1
    35    11     5   ar
    36    14    15    1
    37    23    24    1
@<TRIPOS>MOLECULE
*****
 34 37 0 0 0
SMALL
GASTEIGER

@<TRIPOS>ATOM
      1 C         139.3681  139.9880  165.7171 C.ar    1  UNL1        0.0576
      2 C         138.3889  140.6764  164.8131 C.ar    1  UNL1        0.0386
      3 C         138.7634  140.9777  163.3923 C.ar    1  UNL1        0.1286
      4 N         140.1172  140.5906  162.8753 N.ar    1  UNL1       -0.2309
      5 C         141.0966  139.9021  163.7793 C.ar    1  UNL1        0.0829
      6 C         142.4504  139.5150  163.2623 C.ar    1  UNL1        0.0200
      7 C         143.4296  138.8266  164.1662 C.ar    1  UNL1        0.0129
      8 C         143.0550  138.5253  165.5871 C.ar    1  UNL1        0.0578
      9 CL        144.0343  137.8368  166.4911 Cl      1  UNL1       -0.0822
     10 C         141.7012  138.9124  166.1041 C.ar    1  UNL1        0.0130
     11 C         140.7220  139.6008  165.2001 C.ar    1  UNL1        0.0230
     12 O         138.0284  138.5789  167.4404 O.2     1  UNL1       -0.2701
     13 C         138.9935  139.6867  167.1380 C.2     1  UNL1        0.2460
     14 N         139.5840  140.4932  168.2564 N.am    1  UNL1       -0.2994
     15 H         140.2174  141.2203  168.0579 H       1  UNL1        0.1498
     16 C         139.2094  140.1919  169.6773 C.3     1  UNL1        0.1070
     17 C         140.2357  140.3110  170.7648 C.3     1  UNL1        0.0936
     18 N         141.4539  141.1611  170.5566 N.3     1  UNL1       -0.2712
     19 C         142.7984  140.6781  170.0995 C.3     1  UNL1        0.0722
     20 C         143.7170  141.8618  170.0293 C.3     1  UNL1        0.0188
     21 C         142.9402  143.0765  170.4430 C.3     1  UNL1        0.0188
     22 C         141.5415  142.6435  170.7690 C.3     1  UNL1        0.0722
     23 N         137.7841  141.6662  162.4883 N.pl3   1  UNL1       -0.3181
     24 H         137.1688  141.1347  161.9332 H       1  UNL1        0.1482
     25 C         137.7423  143.1644  162.4301 C.3     1  UNL1        0.0882
     26 C         137.5742  143.9595  163.6909 C.3     1  UNL1        0.0226
     27 C         138.7273  144.7454  164.2414 C.3     1  UNL1        0.0191
     28 C         139.9852  144.8940  163.4380 C.3     1  UNL1        0.0723
     29 N         141.2947  144.4283  164.0020 N.3     1  UNL1       -0.2685
     30 C         141.3295  143.2829  164.9699 C.3     1  UNL1        0.1046
     31 C         142.6392  142.8172  165.5340 C.3     1  UNL1        0.1595
     32 O         143.9139  143.4968  165.1300 O.3     1  UNL1       -0.3508
     33 C         143.8790  144.6422  164.1621 C.3     1  UNL1        0.1595
     34 C         142.5695  145.1079  163.5981 C.3     1  UNL1        0.1046
@<TRIPOS>BOND
     1    12    13    2
     2    13    14   am
     3    14    16    1
     4    16    17    1
     5    17    18    1
     6    18    19    1
     7    19    20    1
     8    20    21    1
     9    21    22    1
    10    13     1    1
    11     1     2   ar
    12     2     3   ar
    13     3    23    1
    14    23    25    1
    15    25    26    1
    16    26    27    1
    17    27    28    1
    18    28    29    1
    19    29    30    1
    20    30    31    1
    21    31    32    1
    22    32    33    1
    23    33    34    1
    24     3     4   ar
    25     4     5   ar
    26     5     6   ar
    27     6     7   ar
    28     7     8   ar
    29     8     9    1
    30     8    10   ar
    31    10    11   ar
    32    22    18    1
    33    11     1   ar
    34    34    29    1
    35    11     5   ar
    36    14    15    1
    37    23    24    1
@<TRIPOS>MOLECULE
*****
 34 37 0 0 0
SMALL
GASTEIGER

@<TRIPOS>ATOM
      1 C         139.3522  142.2941  164.2452 C.ar    1  UNL1        0.0576
      2 C         138.6124  141.8500  163.0183 C.ar    1  UNL1        0.0386
      3 C         137.8656  140.5490  163.0225 C.ar    1  UNL1        0.1286
      4 N         137.8587  139.6922  164.2537 N.ar    1  UNL1       -0.2309
      5 C         138.5986  140.1363  165.4807 C.ar    1  UNL1        0.0829
      6 C         138.5917  139.2795  166.7119 C.ar    1  UNL1        0.0200
      7 C         139.3315  139.7237  167.9388 C.ar    1  UNL1        0.0129
      8 C         140.0783  141.0246  167.9345 C.ar    1  UNL1        0.0578
      9 CL        140.8181  141.4687  169.1615 Cl      1  UNL1       -0.0822
     10 C         140.0852  141.8814  166.7034 C.ar    1  UNL1        0.0130
     11 C         139.3453  141.4373  165.4765 C.ar    1  UNL1        0.0230
     12 O         139.6155  144.7400  165.0808 O.2     1  UNL1       -0.2701
     13 C         140.0989  143.5950  164.2409 C.2     1  UNL1        0.2460
     14 N         141.3291  143.7509  163.3969 N.am    1  UNL1       -0.2994
     15 H         141.6464  142.9994  162.8458 H       1  UNL1        0.1498
     16 C         142.0758  145.0518  163.3927 C.3     1  UNL1        0.1070
     17 C         143.5708  145.0588  163.5153 C.3     1  UNL1        0.0936
     18 N         144.3367  143.7722  163.4255 N.3     1  UNL1       -0.2712
     19 C         144.6700  143.0307  162.1649 C.3     1  UNL1        0.0722
     20 C         145.4431  141.8015  162.5408 C.3     1  UNL1        0.0188
     21 C         145.5876  141.7833  164.0337 C.3     1  UNL1        0.0188
     22 C         144.9039  143.0013  164.5805 C.3     1  UNL1        0.0722
     23 N         137.1258  140.1049  161.7955 N.pl3   1  UNL1       -0.3181
     24 H         136.1694  140.3156  161.6942 H       1  UNL1        0.1482
     25 C         137.8430  139.3399  160.7231 C.3     1  UNL1        0.0882
     26 C         138.7952  140.0481  159.8057 C.3     1  UNL1        0.0226
     27 C         140.2664  140.0380  160.0987 C.3     1  UNL1        0.0191
     28 C         140.9072  138.8122  160.6788 C.3     1  UNL1        0.0723
     29 N         141.1983  138.7423  162.1486 N.3     1  UNL1       -0.2685
     30 C         141.9721  139.8421  162.8130 C.3     1  UNL1        0.1046
     31 C         142.2632  139.7721  164.2829 C.3     1  UNL1        0.1595
     32 O         141.7805  138.6024  165.0882 O.3     1  UNL1       -0.3508
     33 C         141.0066  137.5025  164.4237 C.3     1  UNL1        0.1595
     34 C         140.7155  137.5725  162.9540 C.3     1  UNL1        0.1046
@<TRIPOS>BOND
     1    12    13    2
     2    13    14   am
     3    14    16    1
     4    16    17    1
     5    17    18    1
     6    18    19    1
     7    19    20    1
     8    20    21    1
     9    21    22    1
    10    13     1    1
    11     1     2   ar
    12     2     3   ar
    13     3    23    1
    14    23    25    1
    15    25    26    1
    16    26    27    1
    17    27    28    1
    18    28    29    1
    19    29    30    1
    20    30    31    1
    21    31    32    1
    22    32    33    1
    23    33    34    1
    24     3     4   ar
    25     4     5   ar
    26     5     6   ar
    27     6     7   ar
    28     7     8   ar
    29     8     9    1
    30     8    10   ar
    31    10    11   ar
    32    22    18    1
    33    11     1   ar
    34    34    29    1
    35    11     5   ar
    36    14    15    1
    37    23    24    1
@<TRIPOS>MOLECULE
*****
 34 37 0 0 0
SMALL
GASTEIGER

@<TRIPOS>ATOM
      1 C         139.5801  142.0323  165.1897 C.ar    1  UNL1        0.0576
      2 C         139.2237  140.8808  164.2969 C.ar    1  UNL1        0.0386
      3 C         139.1244  139.4954  164.8632 C.ar    1  UNL1        0.1286
      4 N         139.3815  139.2614  166.3223 N.ar    1  UNL1       -0.2309
      5 C         139.7380  140.4128  167.2152 C.ar    1  UNL1        0.0829
      6 C         139.9951  140.1788  168.6743 C.ar    1  UNL1        0.0200
      7 C         140.3516  141.3302  169.5671 C.ar    1  UNL1        0.0129
      8 C         140.4509  142.7156  169.0008 C.ar    1  UNL1        0.0578
      9 CL        140.8074  143.8671  169.8937 Cl      1  UNL1       -0.0822
     10 C         140.1937  142.9497  167.5417 C.ar    1  UNL1        0.0130
     11 C         139.8373  141.7983  166.6489 C.ar    1  UNL1        0.0230
     12 O         138.6517  144.4499  164.9818 O.2     1  UNL1       -0.2701
     13 C         139.6794  143.4177  164.6234 C.2     1  UNL1        0.2460
     14 N         140.8064  143.7710  163.6987 N.am    1  UNL1       -0.2994
     15 H         141.4809  143.0935  163.4634 H       1  UNL1        0.1498
     16 C         140.9057  145.1564  163.1324 C.3     1  UNL1        0.1070
     17 C         139.9540  145.5985  162.0605 C.3     1  UNL1        0.0936
     18 N         139.8800  144.8447  160.7657 N.3     1  UNL1       -0.2712
     19 C         139.3888  143.4383  160.5911 C.3     1  UNL1        0.0722
     20 C         139.4895  143.0894  159.1357 C.3     1  UNL1        0.0188
     21 C         140.0430  144.2802  158.4108 C.3     1  UNL1        0.0188
     22 C         140.2844  145.3651  159.4182 C.3     1  UNL1        0.0722
     23 N         138.7679  138.3440  163.9703 N.pl3   1  UNL1       -0.3181
     24 H         137.8983  137.8937  164.0712 H       1  UNL1        0.1482
     25 C         139.7364  137.8786  162.9237 C.3     1  UNL1        0.0882
     26 C         141.0289  137.2356  163.3309 C.3     1  UNL1        0.0226
     27 C         142.2914  138.0450  163.3645 C.3     1  UNL1        0.0191
     28 C         142.6998  138.7455  164.6264 C.3     1  UNL1        0.0723
     29 N         143.5328  139.9910  164.5569 N.3     1  UNL1       -0.2685
     30 C         144.7752  140.0165  163.7168 C.3     1  UNL1        0.1046
     31 C         145.6081  141.2620  163.6473 C.3     1  UNL1        0.1595
     32 O         145.1987  142.4821  164.4179 O.3     1  UNL1       -0.3508
     33 C         143.9563  142.4566  165.2580 C.3     1  UNL1        0.1595
     34 C         143.1234  141.2111  165.3275 C.3     1  UNL1        0.1046
@<TRIPOS>BOND
     1    12    13    2
     2    13    14   am
     3    14    16    1
     4    16    17    1
     5    17    18    1
     6    18    19    1
     7    19    20    1
     8    20    21    1
     9    21    22    1
    10    13     1    1
    11     1     2   ar
    12     2     3   ar
    13     3    23    1
    14    23    25    1
    15    25    26    1
    16    26    27    1
    17    27    28    1
    18    28    29    1
    19    29    30    1
    20    30    31    1
    21    31    32    1
    22    32    33    1
    23    33    34    1
    24     3     4   ar
    25     4     5   ar
    26     5     6   ar
    27     6     7   ar
    28     7     8   ar
    29     8     9    1
    30     8    10   ar
    31    10    11   ar
    32    22    18    1
    33    11     1   ar
    34    34    29    1
    35    11     5   ar
    36    14    15    1
    37    23    24    1
@<TRIPOS>MOLECULE
*****
 34 37 0 0 0
SMALL
GASTEIGER

@<TRIPOS>ATOM
      1 C         140.8886  141.5678  165.2446 C.ar    1  UNL1        0.0576
      2 C         141.0547  140.4971  164.2073 C.ar    1  UNL1        0.0386
      3 C         141.7869  139.2323  164.5455 C.ar    1  UNL1        0.1286
      4 N         142.3530  139.0383  165.9209 N.ar    1  UNL1       -0.2309
      5 C         142.1870  140.1091  166.9582 C.ar    1  UNL1        0.0829
      6 C         142.7531  139.9151  168.3336 C.ar    1  UNL1        0.0200
      7 C         142.5870  140.9858  169.3709 C.ar    1  UNL1        0.0129
      8 C         141.8548  142.2505  169.0328 C.ar    1  UNL1        0.0578
      9 CL        141.6887  143.3212  170.0701 Cl      1  UNL1       -0.0822
     10 C         141.2886  142.4445  167.6573 C.ar    1  UNL1        0.0130
     11 C         141.4547  141.3738  166.6201 C.ar    1  UNL1        0.0230
     12 O         140.9218  144.0972  164.6523 O.2     1  UNL1       -0.2701
     13 C         140.1564  142.8325  164.9064 C.2     1  UNL1        0.2460
     14 N         138.6587  142.8325  164.8225 N.am    1  UNL1       -0.2994
     15 H         138.1564  142.0024  164.9893 H       1  UNL1        0.1498
     16 C         137.9265  144.0972  164.4843 C.3     1  UNL1        0.1070
     17 C         137.6749  144.4576  163.0501 C.3     1  UNL1        0.0936
     18 N         138.8239  144.5706  162.0925 N.3     1  UNL1       -0.2712
     19 C         139.6435  145.8012  161.8400 C.3     1  UNL1        0.0722
     20 C         140.6812  145.4640  160.8107 C.3     1  UNL1        0.0188
     21 C         140.5029  144.0250  160.4270 C.3     1  UNL1        0.0188
     22 C         139.3550  143.4727  161.2191 C.3     1  UNL1        0.0722
     23 N         141.9530  138.1616  163.5081 N.pl3   1  UNL1       -0.3181
     24 H         141.2723  137.4565  163.4152 H       1  UNL1        0.1482
     25 C         143.1562  138.1653  162.6124 C.3     1  UNL1        0.0882
     26 C         143.1255  138.9231  161.3184 C.3     1  UNL1        0.0226
     27 C         143.2728  140.4160  161.3198 C.3     1  UNL1        0.0191
     28 C         144.4989  141.0480  161.9088 C.3     1  UNL1        0.0723
     29 N         144.3698  142.2476  162.8001 N.3     1  UNL1       -0.2685
     30 C         144.5052  142.0958  164.2863 C.3     1  UNL1        0.1046
     31 C         144.3760  143.2954  165.1775 C.3     1  UNL1        0.1595
     32 O         144.1115  144.6467  164.5827 O.3     1  UNL1       -0.3508
     33 C         143.9762  144.7985  163.0965 C.3     1  UNL1        0.1595
     34 C         144.1053  143.5990  162.2052 C.3     1  UNL1        0.1046
@<TRIPOS>BOND
     1    12    13    2
     2    13    14   am
     3    14    16    1
     4    16    17    1
     5    17    18    1
     6    18    19    1
     7    19    20    1
     8    20    21    1
     9    21    22    1
    10    13     1    1
    11     1     2   ar
    12     2     3   ar
    13     3    23    1
    14    23    25    1
    15    25    26    1
    16    26    27    1
    17    27    28    1
    18    28    29    1
    19    29    30    1
    20    30    31    1
    21    31    32    1
    22    32    33    1
    23    33    34    1
    24     3     4   ar
    25     4     5   ar
    26     5     6   ar
    27     6     7   ar
    28     7     8   ar
    29     8     9    1
    30     8    10   ar
    31    10    11   ar
    32    22    18    1
    33    11     1   ar
    34    34    29    1
    35    11     5   ar
    36    14    15    1
    37    23    24    1
@<TRIPOS>MOLECULE
*****
 34 37 0 0 0
SMALL
GASTEIGER

@<TRIPOS>ATOM
      1 C         141.1449  141.0689  165.1055 C.ar    1  UNL1        0.0576
      2 C         142.2090  140.6894  164.1188 C.ar    1  UNL1        0.0386
      3 C         143.3672  139.8412  164.5538 C.ar    1  UNL1        0.1286
      4 N         143.4613  139.3725  165.9755 N.ar    1  UNL1       -0.2309
      5 C         142.3972  139.7520  166.9623 C.ar    1  UNL1        0.0829
      6 C         142.4913  139.2832  168.3841 C.ar    1  UNL1        0.0200
      7 C         141.4272  139.6627  169.3708 C.ar    1  UNL1        0.0129
      8 C         140.2691  140.5109  168.9359 C.ar    1  UNL1        0.0578
      9 CL        139.2050  140.8904  169.9227 Cl      1  UNL1       -0.0822
     10 C         140.1750  140.9796  167.5141 C.ar    1  UNL1        0.0130
     11 C         141.2390  140.6001  166.5274 C.ar    1  UNL1        0.0230
     12 O         139.9037  143.3513  165.1021 O.2     1  UNL1       -0.2701
     13 C         139.9868  141.9171  164.6705 C.2     1  UNL1        0.2460
     14 N         138.9117  141.3311  163.8041 N.am    1  UNL1       -0.2994
     15 H         138.9662  140.3898  163.5209 H       1  UNL1        0.1498
     16 C         137.7535  142.1793  163.3691 C.3     1  UNL1        0.1070
     17 C         137.7861  142.8665  162.0361 C.3     1  UNL1        0.0936
     18 N         138.7756  143.9650  161.7827 N.3     1  UNL1       -0.2712
     19 C         138.8874  145.2464  162.5544 C.3     1  UNL1        0.0722
     20 C         140.0080  146.0482  161.9617 C.3     1  UNL1        0.0188
     21 C         140.5888  145.2624  160.8236 C.3     1  UNL1        0.0188
     22 C         139.8272  143.9749  160.7129 C.3     1  UNL1        0.0722
     23 N         144.4313  139.4617  163.5669 N.pl3   1  UNL1       -0.3181
     24 H         145.1246  138.8092  163.8172 H       1  UNL1        0.1482
     25 C         144.4389  140.0765  162.1987 C.3     1  UNL1        0.0882
     26 C         144.3003  139.2064  160.9848 C.3     1  UNL1        0.0226
     27 C         142.9380  138.8709  160.4540 C.3     1  UNL1        0.0191
     28 C         142.1316  137.7798  161.0935 C.3     1  UNL1        0.0723
     29 N         140.7263  138.0506  161.5427 N.3     1  UNL1       -0.2685
     30 C         139.7738  138.7695  160.6339 C.3     1  UNL1        0.1046
     31 C         138.3685  139.0403  161.0831 C.3     1  UNL1        0.1595
     32 O         137.9157  138.5923  162.4411 O.3     1  UNL1       -0.3508
     33 C         138.8682  137.8734  163.3500 C.3     1  UNL1        0.1595
     34 C         140.2735  137.6026  162.9008 C.3     1  UNL1        0.1046
@<TRIPOS>BOND
     1    12    13    2
     2    13    14   am
     3    14    16    1
     4    16    17    1
     5    17    18    1
     6    18    19    1
     7    19    20    1
     8    20    21    1
     9    21    22    1
    10    13     1    1
    11     1     2   ar
    12     2     3   ar
    13     3    23    1
    14    23    25    1
    15    25    26    1
    16    26    27    1
    17    27    28    1
    18    28    29    1
    19    29    30    1
    20    30    31    1
    21    31    32    1
    22    32    33    1
    23    33    34    1
    24     3     4   ar
    25     4     5   ar
    26     5     6   ar
    27     6     7   ar
    28     7     8   ar
    29     8     9    1
    30     8    10   ar
    31    10    11   ar
    32    22    18    1
    33    11     1   ar
    34    34    29    1
    35    11     5   ar
    36    14    15    1
    37    23    24    1
@<TRIPOS>MOLECULE
*****
 34 37 0 0 0
SMALL
GASTEIGER

@<TRIPOS>ATOM
      1 C         141.7422  140.3031  165.7979 C.ar    1  UNL1        0.0576
      2 C         142.8844  140.8960  165.0273 C.ar    1  UNL1        0.0386
      3 C         143.6421  142.0627  165.5882 C.ar    1  UNL1        0.1286
      4 N         143.2576  142.6366  166.9196 N.ar    1  UNL1       -0.2309
      5 C         142.1153  142.0438  167.6902 C.ar    1  UNL1        0.0829
      6 C         141.7308  142.6177  169.0216 C.ar    1  UNL1        0.0200
      7 C         140.5885  142.0248  169.7922 C.ar    1  UNL1        0.0129
      8 C         139.8308  140.8581  169.2313 C.ar    1  UNL1        0.0578
      9 CL        138.6885  140.2652  170.0019 Cl      1  UNL1       -0.0822
     10 C         140.2153  140.2842  167.8999 C.ar    1  UNL1        0.0130
     11 C         141.3576  140.8770  167.1293 C.ar    1  UNL1        0.0230
     12 O         141.5995  137.7682  165.2464 O.2     1  UNL1       -0.2701
     13 C         140.9845  139.1364  165.2370 C.2     1  UNL1        0.2460
     14 N         139.6118  139.3377  164.6667 N.am    1  UNL1       -0.2994
     15 H         139.2081  140.2356  164.6606 H       1  UNL1        0.1498
     16 C         138.8541  138.1709  164.1059 C.3     1  UNL1        0.1070
     17 C         139.1802  137.6534  162.7362 C.3     1  UNL1        0.0936
     18 N         138.8695  138.4845  161.5268 N.3     1  UNL1       -0.2712
     19 C         137.7461  139.4702  161.3993 C.3     1  UNL1        0.0722
     20 C         137.8099  140.0708  160.0262 C.3     1  UNL1        0.0188
     21 C         138.9728  139.4562  159.3051 C.3     1  UNL1        0.0188
     22 C         139.6277  138.4758  160.2325 C.3     1  UNL1        0.0722
     23 N         144.7844  142.6556  164.8175 N.pl3   1  UNL1       -0.3181
     24 H         145.6239  142.8830  165.2787 H       1  UNL1        0.1482
     25 C         144.6475  142.9019  163.3443 C.3     1  UNL1        0.0882
     26 C         143.6663  143.9192  162.8420 C.3     1  UNL1        0.0226
     27 C         143.0074  144.8640  163.8029 C.3     1  UNL1        0.0191
     28 C         141.6871  145.4861  163.4568 C.3     1  UNL1        0.0723
     29 N         140.4138  144.7384  163.7203 N.3     1  UNL1       -0.2685
     30 C         139.1959  145.0149  162.8894 C.3     1  UNL1        0.1046
     31 C         137.9225  144.2672  163.1530 C.3     1  UNL1        0.1595
     32 O         137.8670  143.2430  164.2475 O.3     1  UNL1       -0.3508
     33 C         139.0848  142.9665  165.0784 C.3     1  UNL1        0.1595
     34 C         140.3582  143.7142  164.8149 C.3     1  UNL1        0.1046
@<TRIPOS>BOND
     1    12    13    2
     2    13    14   am
     3    14    16    1
     4    16    17    1
     5    17    18    1
     6    18    19    1
     7    19    20    1
     8    20    21    1
     9    21    22    1
    10    13     1    1
    11     1     2   ar
    12     2     3   ar
    13     3    23    1
    14    23    25    1
    15    25    26    1
    16    26    27    1
    17    27    28    1
    18    28    29    1
    19    29    30    1
    20    30    31    1
    21    31    32    1
    22    32    33    1
    23    33    34    1
    24     3     4   ar
    25     4     5   ar
    26     5     6   ar
    27     6     7   ar
    28     7     8   ar
    29     8     9    1
    30     8    10   ar
    31    10    11   ar
    32    22    18    1
    33    11     1   ar
    34    34    29    1
    35    11     5   ar
    36    14    15    1
    37    23    24    1
@<TRIPOS>MOLECULE
*****
 34 37 0 0 0
SMALL
GASTEIGER

@<TRIPOS>ATOM
      1 C         141.5875  138.8521  165.0943 C.ar    1  UNL1        0.0576
      2 C         140.8444  138.2111  163.9599 C.ar    1  UNL1        0.0386
      3 C         139.3599  138.0160  164.0509 C.ar    1  UNL1        0.1286
      4 N         138.6185  138.4618  165.2763 N.ar    1  UNL1       -0.2309
      5 C         139.3617  139.1028  166.4108 C.ar    1  UNL1        0.0829
      6 C         138.6203  139.5486  167.6362 C.ar    1  UNL1        0.0200
      7 C         139.3634  140.1896  168.7705 C.ar    1  UNL1        0.0129
      8 C         140.8479  140.3847  168.6796 C.ar    1  UNL1        0.0578
      9 CL        141.5910  141.0258  169.8140 Cl      1  UNL1       -0.0822
     10 C         141.5892  139.9389  167.4542 C.ar    1  UNL1        0.0130
     11 C         140.8461  139.2979  166.3198 C.ar    1  UNL1        0.0230
     12 O         143.9892  138.2407  165.8741 O.2     1  UNL1       -0.2701
     13 C         143.0719  139.0473  165.0033 C.2     1  UNL1        0.2460
     14 N         143.6391  140.0489  164.0417 N.am    1  UNL1       -0.2994
     15 H         143.0371  140.5783  163.4702 H       1  UNL1        0.1498
     16 C         145.1236  140.2441  163.9507 C.3     1  UNL1        0.1070
     17 C         145.6794  141.5178  163.3858 C.3     1  UNL1        0.0936
     18 N         144.9161  142.8004  163.5352 N.3     1  UNL1       -0.2712
     19 C         144.4394  143.6782  162.4162 C.3     1  UNL1        0.0722
     20 C         143.7242  144.8507  163.0192 C.3     1  UNL1        0.0188
     21 C         143.7589  144.6976  164.5110 C.3     1  UNL1        0.0188
     22 C         144.4956  143.4304  164.8299 C.3     1  UNL1        0.0722
     23 N         138.6168  137.3749  162.9164 N.pl3   1  UNL1       -0.3181
     24 H         138.4097  136.4129  162.9448 H       1  UNL1        0.1482
     25 C         138.1892  138.1997  161.7388 C.3     1  UNL1        0.0882
     26 C         138.0751  139.6897  161.8685 C.3     1  UNL1        0.0226
     27 C         139.0168  140.5824  161.1160 C.3     1  UNL1        0.0191
     28 C         140.4325  140.7443  161.5846 C.3     1  UNL1        0.0723
     29 N         141.5622  140.2040  160.7589 N.3     1  UNL1       -0.2685
     30 C         141.5684  138.7611  160.3491 C.3     1  UNL1        0.1046
     31 C         142.6982  138.2208  159.5234 C.3     1  UNL1        0.1595
     32 O         143.8217  139.1234  159.1075 O.3     1  UNL1       -0.3508
     33 C         143.8155  140.5663  159.5173 C.3     1  UNL1        0.1595
     34 C         142.6858  141.1066  160.3430 C.3     1  UNL1        0.1046
@<TRIPOS>BOND
     1    12    13    2
     2    13    14   am
     3    14    16    1
     4    16    17    1
     5    17    18    1
     6    18    19    1
     7    19    20    1
     8    20    21    1
     9    21    22    1
    10    13     1    1
    11     1     2   ar
    12     2     3   ar
    13     3    23    1
    14    23    25    1
    15    25    26    1
    16    26    27    1
    17    27    28    1
    18    28    29    1
    19    29    30    1
    20    30    31    1
    21    31    32    1
    22    32    33    1
    23    33    34    1
    24     3     4   ar
    25     4     5   ar
    26     5     6   ar
    27     6     7   ar
    28     7     8   ar
    29     8     9    1
    30     8    10   ar
    31    10    11   ar
    32    22    18    1
    33    11     1   ar
    34    34    29    1
    35    11     5   ar
    36    14    15    1
    37    23    24    1
@<TRIPOS>MOLECULE
*****
 34 37 0 0 0
SMALL
GASTEIGER

@<TRIPOS>ATOM
      1 C         140.7645  139.8324  165.2905 C.ar    1  UNL1        0.0576
      2 C         141.1228  138.6844  164.3940 C.ar    1  UNL1        0.0386
      3 C         140.9283  138.8017  162.9113 C.ar    1  UNL1        0.1286
      4 N         140.3756  140.0669  162.3250 N.ar    1  UNL1       -0.2309
      5 C         140.0173  141.2149  163.2216 C.ar    1  UNL1        0.0829
      6 C         139.4645  142.4801  162.6354 C.ar    1  UNL1        0.0200
      7 C         139.1062  143.6281  163.5319 C.ar    1  UNL1        0.0129
      8 C         139.3007  143.5109  165.0146 C.ar    1  UNL1        0.0578
      9 CL        138.9424  144.6589  165.9111 Cl      1  UNL1       -0.0822
     10 C         139.8534  142.2457  165.6008 C.ar    1  UNL1        0.0130
     11 C         140.2117  141.0977  164.7043 C.ar    1  UNL1        0.0230
     12 O         139.7784  139.8072  167.6940 O.2     1  UNL1       -0.2701
     13 C         140.9590  139.7152  166.7732 C.2     1  UNL1        0.2460
     14 N         142.3339  139.5059  167.3351 N.am    1  UNL1       -0.2994
     15 H         143.1087  139.4455  166.7307 H       1  UNL1        0.1498
     16 C         142.5284  139.3887  168.8178 C.3     1  UNL1        0.1070
     17 C         142.7919  140.6160  169.6390 C.3     1  UNL1        0.0936
     18 N         141.7221  141.6551  169.7994 N.3     1  UNL1       -0.2712
     19 C         141.5313  142.8650  168.9336 C.3     1  UNL1        0.0722
     20 C         140.3465  143.6244  169.4528 C.3     1  UNL1        0.0188
     21 C         139.8050  142.8838  170.6395 C.3     1  UNL1        0.0188
     22 C         140.6551  141.6666  170.8537 C.3     1  UNL1        0.0722
     23 N         141.2866  137.6536  162.0147 N.pl3   1  UNL1       -0.3181
     24 H         140.7997  136.8011  162.0882 H       1  UNL1        0.1482
     25 C         142.3868  137.8045  161.0064 C.3     1  UNL1        0.0882
     26 C         143.7665  138.1872  161.4533 C.3     1  UNL1        0.0226
     27 C         144.1400  139.6346  161.5781 C.3     1  UNL1        0.0191
     28 C         144.6440  140.1691  162.8859 C.3     1  UNL1        0.0723
     29 N         144.0450  141.4152  163.4676 N.3     1  UNL1       -0.2685
     30 C         144.0265  141.6151  164.9541 C.3     1  UNL1        0.1046
     31 C         143.4274  142.8613  165.5358 C.3     1  UNL1        0.1595
     32 O         142.8470  143.9074  164.6311 O.3     1  UNL1       -0.3508
     33 C         142.8655  143.7075  163.1446 C.3     1  UNL1        0.1595
     34 C         143.4645  142.4614  162.5628 C.3     1  UNL1        0.1046
@<TRIPOS>BOND
     1    12    13    2
     2    13    14   am
     3    14    16    1
     4    16    17    1
     5    17    18    1
     6    18    19    1
     7    19    20    1
     8    20    21    1
     9    21    22    1
    10    13     1    1
    11     1     2   ar
    12     2     3   ar
    13     3    23    1
    14    23    25    1
    15    25    26    1
    16    26    27    1
    17    27    28    1
    18    28    29    1
    19    29    30    1
    20    30    31    1
    21    31    32    1
    22    32    33    1
    23    33    34    1
    24     3     4   ar
    25     4     5   ar
    26     5     6   ar
    27     6     7   ar
    28     7     8   ar
    29     8     9    1
    30     8    10   ar
    31    10    11   ar
    32    22    18    1
    33    11     1   ar
    34    34    29    1
    35    11     5   ar
    36    14    15    1
    37    23    24    1
