@<TRIPOS>MOLECULE
*****
 28 31 0 0 0
SMALL
GASTEIGER

@<TRIPOS>ATOM
      1 C         139.7539  141.0678  169.4595 C.ar    1  UNL1        0.0783
      2 C         138.7691  139.9531  169.6532 C.ar    1  UNL1        0.1044
      3 N         138.2250  139.2179  168.4644 N.ar    1  UNL1       -0.2375
      4 C         138.6658  139.5973  167.0817 C.ar    1  UNL1        0.1071
      5 C         139.6507  140.7119  166.8879 C.ar    1  UNL1        0.0302
      6 C         140.2654  141.3051  165.6549 C.ar    1  UNL1        0.0090
      7 C         141.1893  142.4069  166.0818 C.ar    1  UNL1        0.0295
      8 S         141.1457  142.4947  167.5786 S.2     1  UNL1       -0.0867
      9 C         140.1947  141.4472  168.0768 C.ar    1  UNL1        0.0373
     10 C         142.0125  143.2695  165.1716 C.ar    1  UNL1        0.0060
     11 C         143.5010  143.0933  165.1148 C.ar    1  UNL1        0.0005
     12 C         144.3241  143.9560  164.2046 C.ar    1  UNL1        0.0000
     13 C         143.6587  144.9948  163.3513 C.ar    1  UNL1        0.0000
     14 C         142.1702  145.1710  163.4081 C.ar    1  UNL1        0.0000
     15 C         141.3471  144.3083  164.3183 C.ar    1  UNL1        0.0005
     16 N         139.6771  143.0994  171.0771 N.am    1  UNL1       -0.3253
     17 C         140.2980  141.8030  170.6483 C.2     1  UNL1        0.2448
     18 O         141.4631  141.2418  171.4085 O.2     1  UNL1       -0.2703
     19 H         140.0341  143.5819  171.8574 H       1  UNL1        0.1453
     20 H         138.9124  143.4677  170.5781 H       1  UNL1        0.1453
     21 S         138.1217  138.8620  165.8928 S.3     1  UNL1       -0.0944
     22 C         139.0414  138.4442  164.7840 C.3     1  UNL1        0.0691
     23 C         140.2327  137.5830  165.0821 C.3     1  UNL1        0.0140
     24 C         141.1525  137.1652  163.9733 C.3     1  UNL1        0.0180
     25 C         140.8809  137.6087  162.5663 C.3     1  UNL1        0.0686
     26 N         139.6895  138.4699  162.2682 N.3     1  UNL1       -0.2967
     27 C         138.7698  138.8877  163.3770 C.3     1  UNL1        0.0798
     28 H         139.1215  137.9622  161.5900 H       1  UNL1        0.1233
@<TRIPOS>BOND
     1    16    17   am
     2    17    18    2
     3    17     1    1
     4     1     2   ar
     5     2     3   ar
     6     3     4   ar
     7     4    21    1
     8    21    22    1
     9    22    23    1
    10    23    24    1
    11    24    25    1
    12    25    26    1
    13    26    27    1
    14     4     5   ar
    15     5     6   ar
    16     6     7   ar
    17     7    10    1
    18    10    11   ar
    19    11    12   ar
    20    12    13   ar
    21    13    14   ar
    22    14    15   ar
    23     7     8   ar
    24     8     9   ar
    25     9     1   ar
    26    27    22    1
    27     9     5   ar
    28    15    10   ar
    29    16    19    1
    30    16    20    1
    31    26    28    1
@<TRIPOS>MOLECULE
*****
 28 31 0 0 0
SMALL
GASTEIGER

@<TRIPOS>ATOM
      1 C         141.4103  140.8228  169.4893 C.ar    1  UNL1        0.0783
      2 C         142.1830  139.5836  169.8319 C.ar    1  UNL1        0.1044
      3 N         142.8963  138.8225  168.7540 N.ar    1  UNL1       -0.2375
      4 C         142.8368  139.3005  167.3334 C.ar    1  UNL1        0.1071
      5 C         142.0641  140.5396  166.9908 C.ar    1  UNL1        0.0302
      6 C         141.8276  141.2473  165.6895 C.ar    1  UNL1        0.0090
      7 C         140.9682  142.4458  165.9633 C.ar    1  UNL1        0.0295
      8 S         140.6735  142.4789  167.4337 S.2     1  UNL1       -0.0867
      9 C         141.3509  141.3008  168.0688 C.ar    1  UNL1        0.0373
     10 C         140.4877  143.4372  164.9453 C.ar    1  UNL1        0.0060
     11 C         141.4767  144.2665  164.1810 C.ar    1  UNL1        0.0005
     12 C         140.9961  145.2579  163.1630 C.ar    1  UNL1        0.0000
     13 C         139.5266  145.4201  162.9094 C.ar    1  UNL1        0.0000
     14 C         138.5376  144.5908  163.6737 C.ar    1  UNL1        0.0000
     15 C         139.0182  143.5994  164.6917 C.ar    1  UNL1        0.0005
     16 N         139.2009  141.6888  170.5469 N.am    1  UNL1       -0.3253
     17 C         140.6971  141.5839  170.5672 C.2     1  UNL1        0.2448
     18 O         141.4801  142.2403  171.6656 O.2     1  UNL1       -0.2703
     19 H         138.7328  142.1883  171.2544 H       1  UNL1        0.1453
     20 H         138.6870  141.2580  169.8261 H       1  UNL1        0.1453
     21 S         143.5501  138.5393  166.2555 S.3     1  UNL1       -0.0944
     22 C         142.8660  138.2724  164.9476 C.3     1  UNL1        0.0691
     23 C         141.5706  137.5166  164.9193 C.3     1  UNL1        0.0140
     24 C         140.8864  137.2497  163.6114 C.3     1  UNL1        0.0180
     25 C         141.4976  137.7385  162.3318 C.3     1  UNL1        0.0686
     26 N         142.7930  138.4943  162.3601 N.3     1  UNL1       -0.2967
     27 C         143.4772  138.7613  163.6680 C.3     1  UNL1        0.0798
     28 H         142.6137  139.4021  161.9309 H       1  UNL1        0.1233
@<TRIPOS>BOND
     1    16    17   am
     2    17    18    2
     3    17     1    1
     4     1     2   ar
     5     2     3   ar
     6     3     4   ar
     7     4    21    1
     8    21    22    1
     9    22    23    1
    10    23    24    1
    11    24    25    1
    12    25    26    1
    13    26    27    1
    14     4     5   ar
    15     5     6   ar
    16     6     7   ar
    17     7    10    1
    18    10    11   ar
    19    11    12   ar
    20    12    13   ar
    21    13    14   ar
    22    14    15   ar
    23     7     8   ar
    24     8     9   ar
    25     9     1   ar
    26    27    22    1
    27     9     5   ar
    28    15    10   ar
    29    16    19    1
    30    16    20    1
    31    26    28    1
@<TRIPOS>MOLECULE
*****
 28 31 0 0 0
SMALL
GASTEIGER

@<TRIPOS>ATOM
      1 C         140.3730  140.6064  169.9752 C.ar    1  UNL1        0.0783
      2 C         138.9967  140.0653  170.2260 C.ar    1  UNL1        0.1044
      3 N         138.1922  139.5062  169.0902 N.ar    1  UNL1       -0.2375
      4 C         138.7639  139.4883  167.7035 C.ar    1  UNL1        0.1071
      5 C         140.1402  140.0294  167.4527 C.ar    1  UNL1        0.0302
      6 C         140.9612  140.1439  166.2026 C.ar    1  UNL1        0.0090
      7 C         142.2732  140.7738  166.5658 C.ar    1  UNL1        0.0295
      8 S         142.2631  141.0485  168.0404 S.2     1  UNL1       -0.0867
      9 C         140.9448  140.5885  168.5886 C.ar    1  UNL1        0.0373
     10 C         143.3979  141.0759  165.6204 C.ar    1  UNL1        0.0060
     11 C         143.8654  142.4895  165.4383 C.ar    1  UNL1        0.0005
     12 C         144.9902  142.7915  164.4929 C.ar    1  UNL1        0.0000
     13 C         145.6474  141.6800  163.7296 C.ar    1  UNL1        0.0000
     14 C         145.1799  140.2664  163.9118 C.ar    1  UNL1        0.0000
     15 C         144.0552  139.9644  164.8572 C.ar    1  UNL1        0.0005
     16 N         142.4867  140.5354  171.4843 N.am    1  UNL1       -0.3253
     17 C         141.1776  141.1655  171.1110 C.2     1  UNL1        0.2448
     18 O         140.6730  142.3546  171.8736 O.2     1  UNL1       -0.2703
     19 H         143.0147  140.9024  172.2298 H       1  UNL1        0.1453
     20 H         142.8178  139.7550  170.9838 H       1  UNL1        0.1453
     21 S         137.9592  138.9292  166.5677 S.3     1  UNL1       -0.0944
     22 C         138.5536  138.8553  165.1925 C.3     1  UNL1        0.0691
     23 C         139.3441  137.6488  164.7810 C.3     1  UNL1        0.0140
     24 C         139.9385  137.5748  163.4058 C.3     1  UNL1        0.0180
     25 C         139.7424  138.7074  162.4421 C.3     1  UNL1        0.0686
     26 N         138.9519  139.9140  162.8536 N.3     1  UNL1       -0.2967
     27 C         138.3575  139.9880  164.2288 C.3     1  UNL1        0.0798
     28 H         138.1787  139.9986  162.1937 H       1  UNL1        0.1233
@<TRIPOS>BOND
     1    16    17   am
     2    17    18    2
     3    17     1    1
     4     1     2   ar
     5     2     3   ar
     6     3     4   ar
     7     4    21    1
     8    21    22    1
     9    22    23    1
    10    23    24    1
    11    24    25    1
    12    25    26    1
    13    26    27    1
    14     4     5   ar
    15     5     6   ar
    16     6     7   ar
    17     7    10    1
    18    10    11   ar
    19    11    12   ar
    20    12    13   ar
    21    13    14   ar
    22    14    15   ar
    23     7     8   ar
    24     8     9   ar
    25     9     1   ar
    26    27    22    1
    27     9     5   ar
    28    15    10   ar
    29    16    19    1
    30    16    20    1
    31    26    28    1
@<TRIPOS>MOLECULE
*****
 28 31 0 0 0
SMALL
GASTEIGER

@<TRIPOS>ATOM
      1 C         141.8542  141.0313  169.3922 C.ar    1  UNL1        0.0783
      2 C         142.6573  139.7998  169.6896 C.ar    1  UNL1        0.1044
      3 N         143.0762  138.8899  168.5732 N.ar    1  UNL1       -0.2375
      4 C         142.6920  139.2114  167.1592 C.ar    1  UNL1        0.1071
      5 C         141.8889  140.4429  166.8619 C.ar    1  UNL1        0.0302
      6 C         141.3664  141.0144  165.5772 C.ar    1  UNL1        0.0090
      7 C         140.6245  142.2776  165.8997 C.ar    1  UNL1        0.0295
      8 S         140.6885  142.4867  167.3837 S.2     1  UNL1       -0.0867
      9 C         141.4699  141.3528  167.9783 C.ar    1  UNL1        0.0373
     10 C         139.9390  143.1742  164.9118 C.ar    1  UNL1        0.0060
     11 C         140.7253  144.2169  164.1738 C.ar    1  UNL1        0.0005
     12 C         140.0396  145.1135  163.1858 C.ar    1  UNL1        0.0000
     13 C         138.5678  144.9675  162.9358 C.ar    1  UNL1        0.0000
     14 C         137.7816  143.9248  163.6738 C.ar    1  UNL1        0.0000
     15 C         138.4672  143.0282  164.6618 C.ar    1  UNL1        0.0005
     16 N         142.4425  142.8415  171.1605 N.am    1  UNL1       -0.3253
     17 C         141.4353  141.9412  170.5087 C.2     1  UNL1        0.2448
     18 O         140.0090  141.9508  170.9734 O.2     1  UNL1       -0.2703
     19 H         142.1675  143.4387  171.8933 H       1  UNL1        0.1453
     20 H         143.3786  142.8352  170.8555 H       1  UNL1        0.1453
     21 S         143.1110  138.3014  166.0428 S.3     1  UNL1       -0.0944
     22 C         143.5356  138.8778  164.7247 C.3     1  UNL1        0.0691
     23 C         142.7559  138.5631  163.4825 C.3     1  UNL1        0.0140
     24 C         143.1805  139.1394  162.1643 C.3     1  UNL1        0.0180
     25 C         144.3848  140.0304  162.0884 C.3     1  UNL1        0.0686
     26 N         145.1645  140.3451  163.3305 N.3     1  UNL1       -0.2967
     27 C         144.7399  139.7687  164.6487 C.3     1  UNL1        0.0798
     28 H         145.1540  141.3596  163.4357 H       1  UNL1        0.1233
@<TRIPOS>BOND
     1    16    17   am
     2    17    18    2
     3    17     1    1
     4     1     2   ar
     5     2     3   ar
     6     3     4   ar
     7     4    21    1
     8    21    22    1
     9    22    23    1
    10    23    24    1
    11    24    25    1
    12    25    26    1
    13    26    27    1
    14     4     5   ar
    15     5     6   ar
    16     6     7   ar
    17     7    10    1
    18    10    11   ar
    19    11    12   ar
    20    12    13   ar
    21    13    14   ar
    22    14    15   ar
    23     7     8   ar
    24     8     9   ar
    25     9     1   ar
    26    27    22    1
    27     9     5   ar
    28    15    10   ar
    29    16    19    1
    30    16    20    1
    31    26    28    1
@<TRIPOS>MOLECULE
*****
 28 31 0 0 0
SMALL
GASTEIGER

@<TRIPOS>ATOM
      1 C         139.2743  138.2579  164.5949 C.ar    1  UNL1        0.0783
      2 C         138.4439  137.5136  165.5980 C.ar    1  UNL1        0.1044
      3 N         138.2534  138.0728  166.9767 N.ar    1  UNL1       -0.2375
      4 C         138.8934  139.3764  167.3524 C.ar    1  UNL1        0.1071
      5 C         139.7238  140.1207  166.3493 C.ar    1  UNL1        0.0302
      6 C         140.4724  141.4180  166.4308 C.ar    1  UNL1        0.0090
      7 C         141.1255  141.6605  165.1025 C.ar    1  UNL1        0.0295
      8 S         140.7806  140.5131  164.1999 S.2     1  UNL1       -0.0867
      9 C         139.9143  139.5614  164.9705 C.ar    1  UNL1        0.0373
     10 C         141.9745  142.8429  164.7402 C.ar    1  UNL1        0.0060
     11 C         141.3691  144.0059  164.0117 C.ar    1  UNL1        0.0005
     12 C         142.2182  145.1883  163.6494 C.ar    1  UNL1        0.0000
     13 C         143.6726  145.2076  164.0156 C.ar    1  UNL1        0.0000
     14 C         144.2781  144.0445  164.7441 C.ar    1  UNL1        0.0000
     15 C         143.4290  142.8622  165.1064 C.ar    1  UNL1        0.0005
     16 N         138.3360  137.7359  162.2291 N.am    1  UNL1       -0.3253
     17 C         139.4648  137.6986  163.2161 C.2     1  UNL1        0.2448
     18 O         140.7843  137.1021  162.8244 O.2     1  UNL1       -0.2703
     19 H         138.4610  137.3688  161.3242 H       1  UNL1        0.1453
     20 H         137.4700  138.1274  162.4862 H       1  UNL1        0.1453
     21 S         138.7028  139.9356  168.7312 S.3     1  UNL1       -0.0944
     22 C         139.8586  140.5634  169.4522 C.3     1  UNL1        0.0691
     23 C         141.1309  139.7924  169.6441 C.3     1  UNL1        0.0140
     24 C         142.2868  140.4201  170.3652 C.3     1  UNL1        0.0180
     25 C         142.1703  141.8188  170.8943 C.3     1  UNL1        0.0686
     26 N         140.8980  142.5898  170.7024 N.3     1  UNL1       -0.2967
     27 C         139.7422  141.9621  169.9814 C.3     1  UNL1        0.0798
     28 H         141.1414  143.4362  170.1879 H       1  UNL1        0.1233
@<TRIPOS>BOND
     1    16    17   am
     2    17    18    2
     3    17     1    1
     4     1     2   ar
     5     2     3   ar
     6     3     4   ar
     7     4    21    1
     8    21    22    1
     9    22    23    1
    10    23    24    1
    11    24    25    1
    12    25    26    1
    13    26    27    1
    14     4     5   ar
    15     5     6   ar
    16     6     7   ar
    17     7    10    1
    18    10    11   ar
    19    11    12   ar
    20    12    13   ar
    21    13    14   ar
    22    14    15   ar
    23     7     8   ar
    24     8     9   ar
    25     9     1   ar
    26    27    22    1
    27     9     5   ar
    28    15    10   ar
    29    16    19    1
    30    16    20    1
    31    26    28    1
@<TRIPOS>MOLECULE
*****
 28 31 0 0 0
SMALL
GASTEIGER

@<TRIPOS>ATOM
      1 C         138.9192  139.0299  164.2961 C.ar    1  UNL1        0.0783
      2 C         138.1127  139.2800  163.0563 C.ar    1  UNL1        0.1044
      3 N         137.7845  140.6848  162.6458 N.ar    1  UNL1       -0.2375
      4 C         138.2627  141.8397  163.4751 C.ar    1  UNL1        0.1071
      5 C         139.0692  141.5896  164.7148 C.ar    1  UNL1        0.0302
      6 C         139.6732  142.5205  165.7241 C.ar    1  UNL1        0.0090
      7 C         140.3748  141.6910  166.7583 C.ar    1  UNL1        0.0295
      8 S         140.2044  140.2473  166.3883 S.2     1  UNL1       -0.0867
      9 C         139.3975  140.1847  165.1253 C.ar    1  UNL1        0.0373
     10 C         141.1165  142.2133  167.9528 C.ar    1  UNL1        0.0060
     11 C         142.5612  141.8617  168.1513 C.ar    1  UNL1        0.0005
     12 C         143.3029  142.3841  169.3459 C.ar    1  UNL1        0.0000
     13 C         142.6000  143.2580  170.3420 C.ar    1  UNL1        0.0000
     14 C         141.1554  143.6096  170.1436 C.ar    1  UNL1        0.0000
     15 C         140.4137  143.0872  168.9489 C.ar    1  UNL1        0.0005
     16 N         140.4881  136.9620  164.1859 N.am    1  UNL1       -0.3253
     17 C         139.2474  137.6250  164.7066 C.2     1  UNL1        0.2448
     18 O         138.3349  136.8830  165.6377 O.2     1  UNL1       -0.2703
     19 H         140.7036  136.0399  164.4554 H       1  UNL1        0.1453
     20 H         141.0870  137.4489  163.5748 H       1  UNL1        0.1453
     21 S         137.9344  143.2446  163.0645 S.3     1  UNL1       -0.0944
     22 C         138.8649  143.9990  162.1617 C.3     1  UNL1        0.0691
     23 C         139.2613  143.4163  160.8375 C.3     1  UNL1        0.0140
     24 C         140.1917  144.1706  159.9345 C.3     1  UNL1        0.0180
     25 C         140.7257  145.5075  160.3557 C.3     1  UNL1        0.0686
     26 N         140.3293  146.0901  161.6799 N.3     1  UNL1       -0.2967
     27 C         139.3989  145.3359  162.5829 C.3     1  UNL1        0.0798
     28 H         139.8872  146.9886  161.4857 H       1  UNL1        0.1233
@<TRIPOS>BOND
     1    16    17   am
     2    17    18    2
     3    17     1    1
     4     1     2   ar
     5     2     3   ar
     6     3     4   ar
     7     4    21    1
     8    21    22    1
     9    22    23    1
    10    23    24    1
    11    24    25    1
    12    25    26    1
    13    26    27    1
    14     4     5   ar
    15     5     6   ar
    16     6     7   ar
    17     7    10    1
    18    10    11   ar
    19    11    12   ar
    20    12    13   ar
    21    13    14   ar
    22    14    15   ar
    23     7     8   ar
    24     8     9   ar
    25     9     1   ar
    26    27    22    1
    27     9     5   ar
    28    15    10   ar
    29    16    19    1
    30    16    20    1
    31    26    28    1
@<TRIPOS>MOLECULE
*****
 28 31 0 0 0
SMALL
GASTEIGER

@<TRIPOS>ATOM
      1 C         139.7638  143.8435  161.3434 C.ar    1  UNL1        0.0783
      2 C         139.0471  143.1084  160.2499 C.ar    1  UNL1        0.1044
      3 N         138.5656  141.7064  160.4791 N.ar    1  UNL1       -0.2375
      4 C         138.8009  141.0395  161.8020 C.ar    1  UNL1        0.1071
      5 C         139.5177  141.7746  162.8955 C.ar    1  UNL1        0.0302
      6 C         139.8917  141.3787  164.2932 C.ar    1  UNL1        0.0090
      7 C         140.6043  142.5361  164.9277 C.ar    1  UNL1        0.0295
      8 S         140.6707  143.6473  163.9222 S.2     1  UNL1       -0.0867
      9 C         139.9992  143.1766  162.6662 C.ar    1  UNL1        0.0373
     10 C         141.1540  142.5755  166.3228 C.ar    1  UNL1        0.0060
     11 C         142.6020  142.2697  166.5673 C.ar    1  UNL1        0.0005
     12 C         143.1516  142.3091  167.9624 C.ar    1  UNL1        0.0000
     13 C         142.2533  142.6543  169.1130 C.ar    1  UNL1        0.0000
     14 C         140.8053  142.9601  168.8685 C.ar    1  UNL1        0.0000
     15 C         140.2557  142.9207  167.4734 C.ar    1  UNL1        0.0005
     16 N         141.6101  145.4853  160.5399 N.am    1  UNL1       -0.3253
     17 C         140.2453  145.2455  161.1141 C.2     1  UNL1        0.2448
     18 O         139.3619  146.4077  161.4591 O.2     1  UNL1       -0.2703
     19 H         141.9261  146.4055  160.3894 H       1  UNL1        0.1453
     20 H         142.1899  144.7225  160.3134 H       1  UNL1        0.1453
     21 S         138.3194  139.6374  162.0312 S.3     1  UNL1       -0.0944
     22 C         139.1985  138.6486  162.7378 C.3     1  UNL1        0.0691
     23 C         138.8921  138.2481  164.1505 C.3     1  UNL1        0.0140
     24 C         139.7712  137.2593  164.8572 C.3     1  UNL1        0.0180
     25 C         140.9566  136.6709  164.1511 C.3     1  UNL1        0.0686
     26 N         141.2630  137.0714  162.7384 N.3     1  UNL1       -0.2967
     27 C         140.3839  138.0602  162.0317 C.3     1  UNL1        0.0798
     28 H         141.2523  136.2171  162.1813 H       1  UNL1        0.1233
@<TRIPOS>BOND
     1    16    17   am
     2    17    18    2
     3    17     1    1
     4     1     2   ar
     5     2     3   ar
     6     3     4   ar
     7     4    21    1
     8    21    22    1
     9    22    23    1
    10    23    24    1
    11    24    25    1
    12    25    26    1
    13    26    27    1
    14     4     5   ar
    15     5     6   ar
    16     6     7   ar
    17     7    10    1
    18    10    11   ar
    19    11    12   ar
    20    12    13   ar
    21    13    14   ar
    22    14    15   ar
    23     7     8   ar
    24     8     9   ar
    25     9     1   ar
    26    27    22    1
    27     9     5   ar
    28    15    10   ar
    29    16    19    1
    30    16    20    1
    31    26    28    1
@<TRIPOS>MOLECULE
*****
 28 31 0 0 0
SMALL
GASTEIGER

@<TRIPOS>ATOM
      1 C         138.5178  141.5618  158.7567 C.ar    1  UNL1        0.0783
      2 C         138.8938  142.8819  158.1519 C.ar    1  UNL1        0.1044
      3 N         139.4263  143.9812  159.0223 N.ar    1  UNL1       -0.2375
      4 C         139.5829  143.7605  160.4978 C.ar    1  UNL1        0.1071
      5 C         139.2070  142.4403  161.1026 C.ar    1  UNL1        0.0302
      6 C         139.2512  141.9340  162.5138 C.ar    1  UNL1        0.0090
      7 C         138.7459  140.5216  162.5155 C.ar    1  UNL1        0.0295
      8 S         138.3895  140.1551  161.1053 S.2     1  UNL1       -0.0867
      9 C         138.6745  141.3410  160.2321 C.ar    1  UNL1        0.0373
     10 C         138.6193  139.6319  163.7165 C.ar    1  UNL1        0.0060
     11 C         138.9715  138.1776  163.6130 C.ar    1  UNL1        0.0005
     12 C         138.8448  137.2879  164.8141 C.ar    1  UNL1        0.0000
     13 C         138.3660  137.8526  166.1186 C.ar    1  UNL1        0.0000
     14 C         138.0138  139.3070  166.2221 C.ar    1  UNL1        0.0000
     15 C         138.1405  140.1966  165.0210 C.ar    1  UNL1        0.0005
     16 N         136.6354  140.5994  157.2466 N.am    1  UNL1       -0.3253
     17 C         137.9853  140.4624  157.8862 C.2     1  UNL1        0.2448
     18 O         138.8027  139.2260  157.6552 O.2     1  UNL1       -0.2703
     19 H         136.2859  139.8779  156.6752 H       1  UNL1        0.1453
     20 H         136.0990  141.4109  157.3982 H       1  UNL1        0.1453
     21 S         140.1155  144.8599  161.3682 S.3     1  UNL1       -0.0944
     22 C         141.4715  144.7293  161.9959 C.3     1  UNL1        0.0691
     23 C         141.7232  145.2955  163.3620 C.3     1  UNL1        0.0140
     24 C         143.0792  145.1649  163.9898 C.3     1  UNL1        0.0180
     25 C         144.1836  144.4683  163.2515 C.3     1  UNL1        0.0686
     26 N         143.9319  143.9021  161.8854 N.3     1  UNL1       -0.2967
     27 C         142.5759  144.0327  161.2576 C.3     1  UNL1        0.0798
     28 H         144.1373  142.9044  161.9377 H       1  UNL1        0.1233
@<TRIPOS>BOND
     1    16    17   am
     2    17    18    2
     3    17     1    1
     4     1     2   ar
     5     2     3   ar
     6     3     4   ar
     7     4    21    1
     8    21    22    1
     9    22    23    1
    10    23    24    1
    11    24    25    1
    12    25    26    1
    13    26    27    1
    14     4     5   ar
    15     5     6   ar
    16     6     7   ar
    17     7    10    1
    18    10    11   ar
    19    11    12   ar
    20    12    13   ar
    21    13    14   ar
    22    14    15   ar
    23     7     8   ar
    24     8     9   ar
    25     9     1   ar
    26    27    22    1
    27     9     5   ar
    28    15    10   ar
    29    16    19    1
    30    16    20    1
    31    26    28    1
@<TRIPOS>MOLECULE
*****
 28 31 0 0 0
SMALL
GASTEIGER

@<TRIPOS>ATOM
      1 C         138.5789  139.5039  165.2528 C.ar    1  UNL1        0.0783
      2 C         138.0791  139.6932  163.8513 C.ar    1  UNL1        0.1044
      3 N         138.4683  140.9163  163.0750 N.ar    1  UNL1       -0.2375
      4 C         139.3573  141.9501  163.7003 C.ar    1  UNL1        0.1071
      5 C         139.8572  141.7607  165.1018 C.ar    1  UNL1        0.0302
      6 C         140.7401  142.6024  165.9748 C.ar    1  UNL1        0.0090
      7 C         140.8965  141.8994  167.2906 C.ar    1  UNL1        0.0295
      8 S         140.1103  140.6234  167.2309 S.2     1  UNL1       -0.0867
      9 C         139.4680  140.5376  165.8781 C.ar    1  UNL1        0.0373
     10 C         141.6984  142.3870  168.4608 C.ar    1  UNL1        0.0060
     11 C         143.1406  141.9975  168.5962 C.ar    1  UNL1        0.0005
     12 C         143.9424  142.4850  169.7665 C.ar    1  UNL1        0.0000
     13 C         143.3020  143.3620  170.8013 C.ar    1  UNL1        0.0000
     14 C         141.8598  143.7515  170.6659 C.ar    1  UNL1        0.0000
     15 C         141.0580  143.2639  169.4956 C.ar    1  UNL1        0.0005
     16 N         137.4378  138.4193  167.3196 N.am    1  UNL1       -0.3253
     17 C         138.1897  138.2808  166.0291 C.2     1  UNL1        0.2448
     18 O         138.5524  136.9191  165.5147 O.2     1  UNL1       -0.2703
     19 H         137.1824  137.6165  167.8291 H       1  UNL1        0.1453
     20 H         137.1998  139.3130  167.6571 H       1  UNL1        0.1453
     21 S         139.7465  143.1732  162.9239 S.3     1  UNL1       -0.0944
     22 C         141.1895  143.5700  162.8234 C.3     1  UNL1        0.0691
     23 C         142.2063  142.5828  162.3318 C.3     1  UNL1        0.0140
     24 C         143.6494  142.9796  162.2313 C.3     1  UNL1        0.0180
     25 C         144.0757  144.3636  162.6223 C.3     1  UNL1        0.0686
     26 N         143.0589  145.3508  163.1139 N.3     1  UNL1       -0.2967
     27 C         141.6158  144.9540  163.2144 C.3     1  UNL1        0.0798
     28 H         143.1005  146.1536  162.4861 H       1  UNL1        0.1233
@<TRIPOS>BOND
     1    16    17   am
     2    17    18    2
     3    17     1    1
     4     1     2   ar
     5     2     3   ar
     6     3     4   ar
     7     4    21    1
     8    21    22    1
     9    22    23    1
    10    23    24    1
    11    24    25    1
    12    25    26    1
    13    26    27    1
    14     4     5   ar
    15     5     6   ar
    16     6     7   ar
    17     7    10    1
    18    10    11   ar
    19    11    12   ar
    20    12    13   ar
    21    13    14   ar
    22    14    15   ar
    23     7     8   ar
    24     8     9   ar
    25     9     1   ar
    26    27    22    1
    27     9     5   ar
    28    15    10   ar
    29    16    19    1
    30    16    20    1
    31    26    28    1
