@<TRIPOS>MOLECULE
*****
 19 20 0 0 0
SMALL
GASTEIGER

@<TRIPOS>ATOM
      1 O         141.4260  141.3307  167.3290 O.3     1  UNL1       -0.4676
      2 C         141.1731  142.3984  166.3062 C.ar    1  UNL1        0.1410
      3 C         139.8222  143.0438  166.2139 C.ar    1  UNL1        0.0484
      4 C         139.5694  144.1114  165.1911 C.ar    1  UNL1        0.0614
      5 CL        138.2185  144.7569  165.0988 Cl      1  UNL1       -0.0821
      6 C         140.6675  144.5336  164.2605 C.ar    1  UNL1        0.0219
      7 C         142.0183  143.8882  164.3527 C.ar    1  UNL1        0.0723
      8 C         142.2712  142.8206  165.3756 C.ar    1  UNL1        0.0472
      9 C         143.1164  144.3105  163.4221 C.1     1  UNL1        0.1005
     10 N         144.2144  144.7327  162.4915 N.1     1  UNL1       -0.1908
     11 C         140.0628  141.4653  169.6244 C.2     1  UNL1        0.1032
     12 N         138.8720  140.7530  170.1941 N.2     1  UNL1       -0.1533
     13 N         138.4004  139.7539  169.1794 N.2     1  UNL1       -0.1533
     14 C         139.2997  139.8487  167.9827 C.2     1  UNL1        0.1032
     15 C         140.3272  140.9064  168.2577 C.3     1  UNL1        0.2405
     16 C         140.5767  143.9865  169.9837 C.3     1  UNL1        0.0065
     17 C         140.8509  142.5466  170.3023 C.3     1  UNL1        0.0472
     18 C         139.1908  139.0296  166.7309 C.3     1  UNL1        0.0472
     19 C         138.2234  139.4277  165.6558 C.3     1  UNL1        0.0065
@<TRIPOS>BOND
     1    16    17    1
     2    17    11    1
     3    11    12    2
     4    12    13    1
     5    13    14    2
     6    14    18    1
     7    18    19    1
     8    14    15    1
     9    15     1    1
    10     1     2    1
    11     2     3   ar
    12     3     4   ar
    13     4     5    1
    14     4     6   ar
    15     6     7   ar
    16     7     9    1
    17     9    10    3
    18     7     8   ar
    19    15    11    1
    20     8     2   ar
@<TRIPOS>MOLECULE
*****
 19 20 0 0 0
SMALL
GASTEIGER

@<TRIPOS>ATOM
      1 O         141.3920  141.2750  167.2858 O.3     1  UNL1       -0.4676
      2 C         141.1495  142.3607  166.2795 C.ar    1  UNL1        0.1410
      3 C         139.8047  143.0199  166.1967 C.ar    1  UNL1        0.0484
      4 C         139.5623  144.1055  165.1904 C.ar    1  UNL1        0.0614
      5 CL        138.2174  144.7647  165.1076 Cl      1  UNL1       -0.0821
      6 C         140.6647  144.5319  164.2669 C.ar    1  UNL1        0.0219
      7 C         142.0095  143.8727  164.3497 C.ar    1  UNL1        0.0723
      8 C         142.2519  142.7871  165.3560 C.ar    1  UNL1        0.0472
      9 C         143.1119  144.2991  163.4262 C.1     1  UNL1        0.1005
     10 N         144.2143  144.7256  162.5026 N.1     1  UNL1       -0.1908
     11 C         139.2569  139.8326  167.9971 C.2     1  UNL1        0.1032
     12 N         138.3773  139.7673  169.2103 N.2     1  UNL1       -0.1533
     13 N         138.8804  140.7738  170.2023 N.2     1  UNL1       -0.1533
     14 C         140.0710  141.4611  169.6020 C.2     1  UNL1        0.1032
     15 C         140.3037  140.8794  168.2392 C.3     1  UNL1        0.2405
     16 C         138.2653  139.4817  165.6215 C.3     1  UNL1        0.0065
     17 C         139.1148  138.9977  166.7591 C.3     1  UNL1        0.0472
     18 C         140.8857  142.5405  170.2509 C.3     1  UNL1        0.0472
     19 C         140.5918  143.9817  169.9563 C.3     1  UNL1        0.0065
@<TRIPOS>BOND
     1    16    17    1
     2    17    11    1
     3    11    12    2
     4    12    13    1
     5    13    14    2
     6    14    18    1
     7    18    19    1
     8    14    15    1
     9    15     1    1
    10     1     2    1
    11     2     3   ar
    12     3     4   ar
    13     4     5    1
    14     4     6   ar
    15     6     7   ar
    16     7     9    1
    17     9    10    3
    18     7     8   ar
    19    15    11    1
    20     8     2   ar
@<TRIPOS>MOLECULE
*****
 19 20 0 0 0
SMALL
GASTEIGER

@<TRIPOS>ATOM
      1 O         141.8376  141.8927  165.3663 O.3     1  UNL1       -0.4676
      2 C         141.8110  141.7569  166.8600 C.ar    1  UNL1        0.1410
      3 C         142.9995  142.1774  167.6726 C.ar    1  UNL1        0.0484
      4 C         142.9728  142.0416  169.1662 C.ar    1  UNL1        0.0614
      5 CL        144.1614  142.4622  169.9790 Cl      1  UNL1       -0.0821
      6 C         141.7576  141.4852  169.8471 C.ar    1  UNL1        0.0219
      7 C         140.5690  141.0646  169.0344 C.ar    1  UNL1        0.0723
      8 C         140.5957  141.2005  167.5409 C.ar    1  UNL1        0.0472
      9 C         139.3538  140.5083  169.7153 C.1     1  UNL1        0.1005
     10 N         138.1386  139.9519  170.3962 N.1     1  UNL1       -0.1908
     11 C         143.4456  143.8186  164.4440 C.2     1  UNL1        0.1032
     12 N         143.2365  145.1664  163.8198 N.2     1  UNL1       -0.1533
     13 N         141.7593  145.4111  163.7294 N.2     1  UNL1       -0.1533
     14 C         141.0555  144.2146  164.2977 C.2     1  UNL1        0.1032
     15 C         142.0977  143.2303  164.7394 C.3     1  UNL1        0.2405
     16 C         145.1856  141.9516  163.9576 C.3     1  UNL1        0.0065
     17 C         144.7700  143.1724  164.7237 C.3     1  UNL1        0.0472
     18 C         139.5703  144.0341  164.4055 C.3     1  UNL1        0.0472
     19 C         138.7782  144.8846  165.3537 C.3     1  UNL1        0.0065
@<TRIPOS>BOND
     1    16    17    1
     2    17    11    1
     3    11    12    2
     4    12    13    1
     5    13    14    2
     6    14    18    1
     7    18    19    1
     8    14    15    1
     9    15     1    1
    10     1     2    1
    11     2     3   ar
    12     3     4   ar
    13     4     5    1
    14     4     6   ar
    15     6     7   ar
    16     7     9    1
    17     9    10    3
    18     7     8   ar
    19    15    11    1
    20     8     2   ar
@<TRIPOS>MOLECULE
*****
 19 20 0 0 0
SMALL
GASTEIGER

@<TRIPOS>ATOM
      1 O         142.0982  141.8326  165.4856 O.3     1  UNL1       -0.4676
      2 C         141.9894  141.7459  166.9792 C.ar    1  UNL1        0.1410
      3 C         143.1195  142.2230  167.8424 C.ar    1  UNL1        0.0484
      4 C         143.0107  142.1363  169.3360 C.ar    1  UNL1        0.0614
      5 CL        144.1409  142.6134  170.1993 Cl      1  UNL1       -0.0821
      6 C         141.7718  141.5726  169.9662 C.ar    1  UNL1        0.0219
      7 C         140.6416  141.0956  169.1030 C.ar    1  UNL1        0.0723
      8 C         140.7505  141.1823  167.6095 C.ar    1  UNL1        0.0472
      9 C         139.4027  140.5319  169.7333 C.1     1  UNL1        0.1005
     10 N         138.1637  139.9682  170.3635 N.1     1  UNL1       -0.1908
     11 C         144.0673  140.3106  164.5102 C.2     1  UNL1        0.1032
     12 N         145.3832  140.5786  163.8420 N.2     1  UNL1       -0.1533
     13 N         145.5552  142.0650  163.7363 N.2     1  UNL1       -0.1533
     14 C         144.3456  142.7156  164.3391 C.2     1  UNL1        0.1032
     15 C         143.4260  141.6314  164.8174 C.3     1  UNL1        0.2405
     16 C         143.5665  138.4126  166.2121 C.3     1  UNL1        0.0065
     17 C         143.4934  138.9592  164.8172 C.3     1  UNL1        0.0472
     18 C         144.0989  144.1914  164.4451 C.3     1  UNL1        0.0472
     19 C         143.0149  144.8312  163.6291 C.3     1  UNL1        0.0065
@<TRIPOS>BOND
     1    16    17    1
     2    17    11    1
     3    11    12    2
     4    12    13    1
     5    13    14    2
     6    14    18    1
     7    18    19    1
     8    14    15    1
     9    15     1    1
    10     1     2    1
    11     2     3   ar
    12     3     4   ar
    13     4     5    1
    14     4     6   ar
    15     6     7   ar
    16     7     9    1
    17     9    10    3
    18     7     8   ar
    19    15    11    1
    20     8     2   ar
@<TRIPOS>MOLECULE
*****
 19 20 0 0 0
SMALL
GASTEIGER

@<TRIPOS>ATOM
      1 O         142.1019  141.7738  165.4466 O.3     1  UNL1       -0.4676
      2 C         141.9930  141.7085  166.9413 C.ar    1  UNL1        0.1410
      3 C         143.1212  142.2022  167.7977 C.ar    1  UNL1        0.0484
      4 C         143.0123  142.1369  169.2923 C.ar    1  UNL1        0.0614
      5 CL        144.1405  142.6305  170.1488 Cl      1  UNL1       -0.0821
      6 C         141.7752  141.5779  169.9304 C.ar    1  UNL1        0.0219
      7 C         140.6470  141.0843  169.0740 C.ar    1  UNL1        0.0723
      8 C         140.7559  141.1496  167.5794 C.ar    1  UNL1        0.0472
      9 C         139.4100  140.5254  169.7122 C.1     1  UNL1        0.1005
     10 N         138.1729  139.9665  170.3503 N.1     1  UNL1       -0.1908
     11 C         144.3411  142.6901  164.3102 C.2     1  UNL1        0.1032
     12 N         145.5619  142.0574  163.7107 N.2     1  UNL1       -0.1533
     13 N         145.4101  140.5686  163.8131 N.2     1  UNL1       -0.1533
     14 C         144.0955  140.2812  164.4758 C.2     1  UNL1        0.1032
     15 C         143.4348  141.5923  164.7830 C.3     1  UNL1        0.2405
     16 C         142.9152  144.7695  163.6836 C.3     1  UNL1        0.0065
     17 C         144.0735  144.1621  164.4179 C.3     1  UNL1        0.0472
     18 C         143.5392  138.9214  164.7782 C.3     1  UNL1        0.0472
     19 C         143.5264  138.4130  166.1894 C.3     1  UNL1        0.0065
@<TRIPOS>BOND
     1    16    17    1
     2    17    11    1
     3    11    12    2
     4    12    13    1
     5    13    14    2
     6    14    18    1
     7    18    19    1
     8    14    15    1
     9    15     1    1
    10     1     2    1
    11     2     3   ar
    12     3     4   ar
    13     4     5    1
    14     4     6   ar
    15     6     7   ar
    16     7     9    1
    17     9    10    3
    18     7     8   ar
    19    15    11    1
    20     8     2   ar
@<TRIPOS>MOLECULE
*****
 19 20 0 0 0
SMALL
GASTEIGER

@<TRIPOS>ATOM
      1 O         141.3270  140.8093  165.2729 O.3     1  UNL1       -0.4676
      2 C         141.3846  140.9280  166.7671 C.ar    1  UNL1        0.1410
      3 C         141.9198  139.7936  167.5896 C.ar    1  UNL1        0.0484
      4 C         141.9773  139.9123  169.0837 C.ar    1  UNL1        0.0614
      5 CL        142.5125  138.7778  169.9063 Cl      1  UNL1       -0.0821
      6 C         141.4997  141.1656  169.7554 C.ar    1  UNL1        0.0219
      7 C         140.9645  142.3001  168.9329 C.ar    1  UNL1        0.0723
      8 C         140.9070  142.1813  167.4388 C.ar    1  UNL1        0.0472
      9 C         140.4869  143.5534  169.6046 C.1     1  UNL1        0.1005
     10 N         140.0093  144.8067  170.2763 N.1     1  UNL1       -0.1908
     11 C         141.9941  138.6317  163.8735 C.2     1  UNL1        0.1032
     12 N         141.2686  137.4006  163.4174 N.2     1  UNL1       -0.1533
     13 N         139.8510  137.4929  163.8988 N.2     1  UNL1       -0.1533
     14 C         139.7003  138.7810  164.6525 C.2     1  UNL1        0.1032
     15 C         141.0248  139.4849  164.6368 C.3     1  UNL1        0.2405
     16 C         144.3664  139.2118  164.7597 C.3     1  UNL1        0.0065
     17 C         143.4357  138.9532  163.6121 C.3     1  UNL1        0.0472
     18 C         138.4455  139.2780  165.3069 C.3     1  UNL1        0.0472
     19 C         138.1401  138.9017  166.7265 C.3     1  UNL1        0.0065
@<TRIPOS>BOND
     1    16    17    1
     2    17    11    1
     3    11    12    2
     4    12    13    1
     5    13    14    2
     6    14    18    1
     7    18    19    1
     8    14    15    1
     9    15     1    1
    10     1     2    1
    11     2     3   ar
    12     3     4   ar
    13     4     5    1
    14     4     6   ar
    15     6     7   ar
    16     7     9    1
    17     9    10    3
    18     7     8   ar
    19    15    11    1
    20     8     2   ar
@<TRIPOS>MOLECULE
*****
 19 20 0 0 0
SMALL
GASTEIGER

@<TRIPOS>ATOM
      1 O         137.3409  141.1789  162.8161 O.3     1  UNL1       -0.4676
      2 C         138.1801  140.2559  163.6490 C.ar    1  UNL1        0.1410
      3 C         138.9979  139.1853  162.9895 C.ar    1  UNL1        0.0484
      4 C         139.8370  138.2623  163.8224 C.ar    1  UNL1        0.0614
      5 CL        140.6548  137.1917  163.1629 Cl      1  UNL1       -0.0821
      6 C         139.8584  138.4100  165.3150 C.ar    1  UNL1        0.0219
      7 C         139.0406  139.4805  165.9746 C.ar    1  UNL1        0.0723
      8 C         138.2015  140.4035  165.1416 C.ar    1  UNL1        0.0472
      9 C         139.0620  139.6281  167.4672 C.1     1  UNL1        0.1005
     10 N         139.0834  139.7757  168.9597 N.1     1  UNL1       -0.1908
     11 C         138.1049  143.7362  162.9629 C.2     1  UNL1        0.1032
     12 N         138.7492  144.7067  162.0178 N.2     1  UNL1       -0.1533
     13 N         138.9843  143.9993  160.7161 N.2     1  UNL1       -0.1533
     14 C         138.4854  142.5917  160.8567 C.2     1  UNL1        0.1032
     15 C         137.9419  142.4291  162.2453 C.3     1  UNL1        0.2405
     16 C         138.6212  144.7726  165.2887 C.3     1  UNL1        0.0065
     17 C         137.6955  144.0226  164.3772 C.3     1  UNL1        0.0472
     18 C         138.5234  141.5327  159.7951 C.3     1  UNL1        0.0472
     19 C         139.7441  140.6761  159.6334 C.3     1  UNL1        0.0065
@<TRIPOS>BOND
     1    16    17    1
     2    17    11    1
     3    11    12    2
     4    12    13    1
     5    13    14    2
     6    14    18    1
     7    18    19    1
     8    14    15    1
     9    15     1    1
    10     1     2    1
    11     2     3   ar
    12     3     4   ar
    13     4     5    1
    14     4     6   ar
    15     6     7   ar
    16     7     9    1
    17     9    10    3
    18     7     8   ar
    19    15    11    1
    20     8     2   ar
@<TRIPOS>MOLECULE
*****
 19 20 0 0 0
SMALL
GASTEIGER

@<TRIPOS>ATOM
      1 O         141.2255  140.7004  165.3147 O.3     1  UNL1       -0.4676
      2 C         141.3241  140.8460  166.8045 C.ar    1  UNL1        0.1410
      3 C         141.8867  139.7283  167.6316 C.ar    1  UNL1        0.0484
      4 C         141.9853  139.8739  169.1212 C.ar    1  UNL1        0.0614
      5 CL        142.5480  138.7562  169.9485 Cl      1  UNL1       -0.0821
      6 C         141.5213  141.1372  169.7837 C.ar    1  UNL1        0.0219
      7 C         140.9587  142.2548  168.9565 C.ar    1  UNL1        0.0723
      8 C         140.8601  142.1092  167.4669 C.ar    1  UNL1        0.0472
      9 C         140.4946  143.5181  169.6190 C.1     1  UNL1        0.1005
     10 N         140.0306  144.7813  170.2815 N.1     1  UNL1       -0.1908
     11 C         139.3936  138.8007  164.8904 C.2     1  UNL1        0.1032
     12 N         139.3592  137.5132  164.1215 N.2     1  UNL1       -0.1533
     13 N         140.6986  137.3247  163.4729 N.2     1  UNL1       -0.1533
     14 C         141.5607  138.4958  163.8410 C.2     1  UNL1        0.1032
     15 C         140.7542  139.4079  164.7170 C.3     1  UNL1        0.2405
     16 C         137.8037  138.6913  166.9422 C.3     1  UNL1        0.0065
     17 C         138.2654  139.3793  165.6919 C.3     1  UNL1        0.0472
     18 C         142.9801  138.7159  163.4089 C.3     1  UNL1        0.0472
     19 C         143.4531  138.1850  162.0881 C.3     1  UNL1        0.0065
@<TRIPOS>BOND
     1    16    17    1
     2    17    11    1
     3    11    12    2
     4    12    13    1
     5    13    14    2
     6    14    18    1
     7    18    19    1
     8    14    15    1
     9    15     1    1
    10     1     2    1
    11     2     3   ar
    12     3     4   ar
    13     4     5    1
    14     4     6   ar
    15     6     7   ar
    16     7     9    1
    17     9    10    3
    18     7     8   ar
    19    15    11    1
    20     8     2   ar
@<TRIPOS>MOLECULE
*****
 19 20 0 0 0
SMALL
GASTEIGER

@<TRIPOS>ATOM
      1 O         140.9097  141.6851  166.8845 O.3     1  UNL1       -0.4676
      2 C         142.0416  140.9081  166.2800 C.ar    1  UNL1        0.1410
      3 C         142.4646  139.6036  166.8877 C.ar    1  UNL1        0.0484
      4 C         143.5964  138.8267  166.2832 C.ar    1  UNL1        0.0614
      5 CL        144.0195  137.5222  166.8909 Cl      1  UNL1       -0.0821
      6 C         144.3052  139.3544  165.0711 C.ar    1  UNL1        0.0219
      7 C         143.8822  140.6588  164.4634 C.ar    1  UNL1        0.0723
      8 C         142.7504  141.4357  165.0679 C.ar    1  UNL1        0.0472
      9 C         144.5910  141.1864  163.2513 C.1     1  UNL1        0.1005
     10 N         145.2998  141.7141  162.0392 N.1     1  UNL1       -0.1908
     11 C         139.1574  139.9794  167.9639 C.2     1  UNL1        0.1032
     12 N         138.6243  139.7391  169.3452 N.2     1  UNL1       -0.1533
     13 N         139.2751  140.7237  170.2710 N.2     1  UNL1       -0.1533
     14 C         140.2104  141.5725  169.4619 C.2     1  UNL1        0.1032
     15 C         140.1377  141.1125  168.0360 C.3     1  UNL1        0.2405
     16 C         137.7183  138.1595  166.7948 C.3     1  UNL1        0.0065
     17 C         138.7771  139.2200  166.7276 C.3     1  UNL1        0.0472
     18 C         141.0679  142.6858  169.9865 C.3     1  UNL1        0.0472
     19 C         140.5420  144.0904  170.0100 C.3     1  UNL1        0.0065
@<TRIPOS>BOND
     1    16    17    1
     2    17    11    1
     3    11    12    2
     4    12    13    1
     5    13    14    2
     6    14    18    1
     7    18    19    1
     8    14    15    1
     9    15     1    1
    10     1     2    1
    11     2     3   ar
    12     3     4   ar
    13     4     5    1
    14     4     6   ar
    15     6     7   ar
    16     7     9    1
    17     9    10    3
    18     7     8   ar
    19    15    11    1
    20     8     2   ar
