@<TRIPOS>MOLECULE
*****
 36 41 0 0 0
SMALL
GASTEIGER

@<TRIPOS>ATOM
      1 S         139.9665  143.7394  158.1703 S.3     1  UNL1       -0.0756
      2 C         139.6965  140.8937  160.7961 C.ar    1  UNL1        0.1669
      3 N         138.2969  141.4332  160.8084 N.ar    1  UNL1       -0.1282
      4 N         138.2277  142.5649  159.8263 N.ar    1  UNL1       -0.1221
      5 C         139.5845  142.7248  159.2070 C.ar    1  UNL1        0.1932
      6 N         140.4922  141.6920  159.8064 N.ar    1  UNL1       -0.2884
      7 C         141.9414  141.4924  159.4743 C.3     1  UNL1        0.1340
      8 C         138.1881  138.9766  167.2226 C.3     1  UNL1        0.0521
      9 C         138.6936  139.1714  165.8238 C.ar    1  UNL1        0.0593
     10 C         138.1800  140.3094  164.9924 C.ar    1  UNL1        0.0147
     11 C         138.6855  140.5041  163.5936 C.ar    1  UNL1        0.0028
     12 C         139.7046  139.5610  163.0263 C.ar    1  UNL1        0.0206
     13 C         140.2101  139.7558  161.6275 C.ar    1  UNL1        0.0374
     14 C         141.2292  138.8126  161.0602 C.ar    1  UNL1        0.0031
     15 C         141.7428  137.6747  161.8917 C.ar    1  UNL1        0.0016
     16 C         141.2374  137.4799  163.2903 C.ar    1  UNL1        0.0191
     17 C         140.2183  138.4230  163.8577 C.ar    1  UNL1        0.0810
     18 N         139.7128  138.2282  165.2565 N.ar    1  UNL1       -0.2497
     19 C         140.2623  145.1525  158.5773 C.3     1  UNL1        0.0666
     20 C         141.0438  145.4247  159.8284 C.3     1  UNL1        0.0294
     21 C         140.3258  145.6964  161.1170 C.3     1  UNL1        0.0730
     22 N         140.5585  144.8122  162.3062 N.3     1  UNL1       -0.2720
     23 C         139.6949  145.0882  163.5013 C.3     1  UNL1        0.0768
     24 C         139.6836  144.3891  164.8284 C.3     1  UNL1        0.0434
     25 C         140.5329  143.2415  165.2881 C.ar    1  UNL1       -0.0232
     26 C         140.1992  142.8418  166.6949 C.ar    1  UNL1        0.0151
     27 C         140.9360  141.7101  167.3479 C.ar    1  UNL1        0.0871
     28 N         140.8265  141.0954  168.7118 N.ar    1  UNL1       -0.2427
     29 C         141.8293  139.9835  168.8010 C.ar    1  UNL1        0.0886
     30 C         142.0620  139.0994  169.9902 C.3     1  UNL1        0.0594
     31 S         142.5586  139.9110  167.4923 S.2     1  UNL1       -0.0708
     32 C         142.0065  140.9780  166.5942 C.ar    1  UNL1        0.0478
     33 C         142.3403  141.3777  165.1875 C.ar    1  UNL1        0.0035
     34 C         141.6035  142.5094  164.5345 C.ar    1  UNL1       -0.0241
     35 C         142.0890  142.7442  163.1348 C.3     1  UNL1        0.0434
     36 C         141.6239  143.7691  162.1432 C.3     1  UNL1        0.0768
@<TRIPOS>BOND
     1     8     9    1
     2     9    10   ar
     3    10    11   ar
     4    11    12   ar
     5    12    13   ar
     6    13     2    1
     7     2     3   ar
     8     3     4   ar
     9     4     5   ar
    10     5     1    1
    11     1    19    1
    12    19    20    1
    13    20    21    1
    14    21    22    1
    15    22    23    1
    16    23    24    1
    17    24    25    1
    18    25    26   ar
    19    26    27   ar
    20    27    28   ar
    21    28    29   ar
    22    29    30    1
    23    29    31   ar
    24    31    32   ar
    25    32    33   ar
    26    33    34   ar
    27    34    35    1
    28    35    36    1
    29     5     6   ar
    30     6     7    1
    31    13    14   ar
    32    14    15   ar
    33    15    16   ar
    34    16    17   ar
    35    17    18   ar
    36    18     9   ar
    37    17    12   ar
    38     6     2   ar
    39    36    22    1
    40    34    25   ar
    41    32    27   ar
@<TRIPOS>MOLECULE
*****
 36 41 0 0 0
SMALL
GASTEIGER

@<TRIPOS>ATOM
      1 S         139.7426  143.1890  158.5245 S.3     1  UNL1       -0.0756
      2 C         140.2747  141.1609  161.7909 C.ar    1  UNL1        0.1669
      3 N         141.5638  140.8950  161.0713 N.ar    1  UNL1       -0.1282
      4 N         141.5213  141.6223  159.7602 N.ar    1  UNL1       -0.1221
      5 C         140.2060  142.3378  159.6694 C.ar    1  UNL1        0.1932
      6 N         139.4357  142.0526  160.9244 N.ar    1  UNL1       -0.2884
      7 C         138.0665  142.5686  161.2550 C.3     1  UNL1        0.1340
      8 C         144.0078  137.9459  166.5845 C.3     1  UNL1        0.0521
      9 C         142.9789  138.6166  165.7233 C.ar    1  UNL1        0.0593
     10 C         143.3616  139.1489  164.3742 C.ar    1  UNL1        0.0147
     11 C         142.3326  139.8196  163.5131 C.ar    1  UNL1        0.0028
     12 C         140.9210  139.9579  164.0011 C.ar    1  UNL1        0.0206
     13 C         139.8920  140.6286  163.1399 C.ar    1  UNL1        0.0374
     14 C         138.4805  140.7669  163.6281 C.ar    1  UNL1        0.0031
     15 C         138.0978  140.2346  164.9772 C.ar    1  UNL1        0.0016
     16 C         139.1266  139.5640  165.8382 C.ar    1  UNL1        0.0191
     17 C         140.5383  139.4256  165.3502 C.ar    1  UNL1        0.0810
     18 N         141.5672  138.7549  166.2114 N.ar    1  UNL1       -0.2497
     19 C         140.0306  144.6610  158.5198 C.3     1  UNL1        0.0666
     20 C         140.8929  145.2600  159.5913 C.3     1  UNL1        0.0294
     21 C         140.2733  145.7468  160.8676 C.3     1  UNL1        0.0730
     22 N         140.5651  145.0424  162.1594 N.3     1  UNL1       -0.2720
     23 C         141.9593  144.5097  162.3097 C.3     1  UNL1        0.0768
     24 C         142.5568  143.7668  163.4678 C.3     1  UNL1        0.0434
     25 C         141.9078  143.3733  164.7615 C.ar    1  UNL1       -0.0232
     26 C         142.8640  142.6372  165.6526 C.ar    1  UNL1        0.0151
     27 C         142.4133  142.1532  166.9989 C.ar    1  UNL1        0.0871
     28 N         143.1255  141.4053  168.0868 N.ar    1  UNL1       -0.2427
     29 C         142.1589  141.1952  169.2144 C.ar    1  UNL1        0.0886
     30 C         142.4507  140.4908  170.5061 C.3     1  UNL1        0.0594
     31 S         140.8492  141.8132  168.8234 S.2     1  UNL1       -0.0708
     32 C         141.0064  142.4052  167.4542 C.ar    1  UNL1        0.0478
     33 C         140.0503  143.1413  166.5631 C.ar    1  UNL1        0.0035
     34 C         140.5010  143.6253  165.2168 C.ar    1  UNL1       -0.0241
     35 C         139.3957  144.3332  164.4907 C.3     1  UNL1        0.0434
     36 C         139.4243  144.9639  163.1300 C.3     1  UNL1        0.0768
@<TRIPOS>BOND
     1     8     9    1
     2     9    10   ar
     3    10    11   ar
     4    11    12   ar
     5    12    13   ar
     6    13     2    1
     7     2     3   ar
     8     3     4   ar
     9     4     5   ar
    10     5     1    1
    11     1    19    1
    12    19    20    1
    13    20    21    1
    14    21    22    1
    15    22    23    1
    16    23    24    1
    17    24    25    1
    18    25    26   ar
    19    26    27   ar
    20    27    28   ar
    21    28    29   ar
    22    29    30    1
    23    29    31   ar
    24    31    32   ar
    25    32    33   ar
    26    33    34   ar
    27    34    35    1
    28    35    36    1
    29     5     6   ar
    30     6     7    1
    31    13    14   ar
    32    14    15   ar
    33    15    16   ar
    34    16    17   ar
    35    17    18   ar
    36    18     9   ar
    37    17    12   ar
    38     6     2   ar
    39    36    22    1
    40    34    25   ar
    41    32    27   ar
@<TRIPOS>MOLECULE
*****
 36 41 0 0 0
SMALL
GASTEIGER

@<TRIPOS>ATOM
      1 S         142.7002  139.9660  157.1335 S.3     1  UNL1       -0.0756
      2 C         141.5929  138.4341  160.5236 C.ar    1  UNL1        0.1669
      3 N         142.8055  137.6070  160.2140 N.ar    1  UNL1       -0.1282
      4 N         143.3678  138.0802  158.9064 N.ar    1  UNL1       -0.1221
      5 C         142.5028  139.1997  158.4079 C.ar    1  UNL1        0.1932
      6 N         141.4060  139.4184  159.4073 N.ar    1  UNL1       -0.2884
      7 C         140.3138  140.4418  159.3080 C.3     1  UNL1        0.1340
      8 C         143.0668  139.0135  167.2126 C.3     1  UNL1        0.0521
      9 C         142.4803  138.8352  165.8436 C.ar    1  UNL1        0.0593
     10 C         143.3526  138.9690  164.6306 C.ar    1  UNL1        0.0147
     11 C         142.7660  138.7907  163.2617 C.ar    1  UNL1        0.0028
     12 C         141.3072  138.4787  163.1055 C.ar    1  UNL1        0.0206
     13 C         140.7207  138.3004  161.7365 C.ar    1  UNL1        0.0374
     14 C         139.2618  137.9884  161.5805 C.ar    1  UNL1        0.0031
     15 C         138.3895  137.8546  162.7934 C.ar    1  UNL1        0.0016
     16 C         138.9760  138.0329  164.1623 C.ar    1  UNL1        0.0191
     17 C         140.4349  138.3449  164.3185 C.ar    1  UNL1        0.0810
     18 N         141.0214  138.5232  165.6875 N.ar    1  UNL1       -0.2497
     19 C         143.0994  141.4110  157.1815 C.3     1  UNL1        0.0666
     20 C         143.9604  141.9145  158.3020 C.3     1  UNL1        0.0294
     21 C         143.5301  143.1096  159.0997 C.3     1  UNL1        0.0730
     22 N         143.2948  142.9811  160.5755 N.3     1  UNL1       -0.2720
     23 C         144.5120  143.1123  161.4424 C.3     1  UNL1        0.0768
     24 C         144.6085  143.0333  162.9373 C.3     1  UNL1        0.0434
     25 C         143.5117  142.8035  163.9343 C.ar    1  UNL1       -0.0232
     26 C         144.0401  142.7959  165.3382 C.ar    1  UNL1        0.0151
     27 C         143.1043  142.5810  166.4906 C.ar    1  UNL1        0.0871
     28 N         143.3330  142.5229  167.9719 N.ar    1  UNL1       -0.2427
     29 C         142.0102  142.2795  168.6360 C.ar    1  UNL1        0.0886
     30 C         141.7751  142.1511  170.1119 C.3     1  UNL1        0.0594
     31 S         140.9640  142.1872  167.5651 S.2     1  UNL1       -0.0708
     32 C         141.6401  142.3735  166.2393 C.ar    1  UNL1        0.0478
     33 C         141.1118  142.3810  164.8354 C.ar    1  UNL1        0.0035
     34 C         142.0475  142.5960  163.6829 C.ar    1  UNL1       -0.0241
     35 C         141.3185  142.5671  162.3723 C.3     1  UNL1        0.0434
     36 C         141.8737  142.7385  160.9894 C.3     1  UNL1        0.0768
@<TRIPOS>BOND
     1     8     9    1
     2     9    10   ar
     3    10    11   ar
     4    11    12   ar
     5    12    13   ar
     6    13     2    1
     7     2     3   ar
     8     3     4   ar
     9     4     5   ar
    10     5     1    1
    11     1    19    1
    12    19    20    1
    13    20    21    1
    14    21    22    1
    15    22    23    1
    16    23    24    1
    17    24    25    1
    18    25    26   ar
    19    26    27   ar
    20    27    28   ar
    21    28    29   ar
    22    29    30    1
    23    29    31   ar
    24    31    32   ar
    25    32    33   ar
    26    33    34   ar
    27    34    35    1
    28    35    36    1
    29     5     6   ar
    30     6     7    1
    31    13    14   ar
    32    14    15   ar
    33    15    16   ar
    34    16    17   ar
    35    17    18   ar
    36    18     9   ar
    37    17    12   ar
    38     6     2   ar
    39    36    22    1
    40    34    25   ar
    41    32    27   ar
@<TRIPOS>MOLECULE
*****
 36 41 0 0 0
SMALL
GASTEIGER

@<TRIPOS>ATOM
      1 S         141.4973  142.5654  158.1449 S.3     1  UNL1       -0.0756
      2 C         141.1050  140.7614  161.5592 C.ar    1  UNL1        0.1669
      3 N         139.6705  140.9305  161.1542 N.ar    1  UNL1       -0.1282
      4 N         139.6430  141.6268  159.8259 N.ar    1  UNL1       -0.1221
      5 C         141.0603  141.8881  159.4100 C.ar    1  UNL1        0.1932
      6 N         141.9638  141.3533  160.4813 N.ar    1  UNL1       -0.2884
      7 C         143.4631  141.4018  160.4756 C.3     1  UNL1        0.1340
      8 C         137.7248  138.7941  167.2121 C.3     1  UNL1        0.0521
      9 C         138.6922  139.1241  166.1142 C.ar    1  UNL1        0.0593
     10 C         138.2027  139.7714  164.8527 C.ar    1  UNL1        0.0147
     11 C         139.1701  140.1014  163.7549 C.ar    1  UNL1        0.0028
     12 C         140.6270  139.7842  163.9186 C.ar    1  UNL1        0.0206
     13 C         141.5944  140.1142  162.8207 C.ar    1  UNL1        0.0374
     14 C         143.0513  139.7969  162.9845 C.ar    1  UNL1        0.0031
     15 C         143.5408  139.1496  164.2460 C.ar    1  UNL1        0.0016
     16 C         142.5735  138.8196  165.3437 C.ar    1  UNL1        0.0191
     17 C         141.1165  139.1369  165.1801 C.ar    1  UNL1        0.0810
     18 N         140.1491  138.8068  166.2780 N.ar    1  UNL1       -0.2497
     19 C         141.4249  144.0592  158.0305 C.3     1  UNL1        0.0666
     20 C         141.8660  144.9215  159.1759 C.3     1  UNL1        0.0294
     21 C         140.8944  145.2835  160.2598 C.3     1  UNL1        0.0730
     22 N         141.0319  144.6755  161.6241 N.3     1  UNL1       -0.2720
     23 C         142.4308  144.3389  162.0485 C.3     1  UNL1        0.0768
     24 C         142.8957  143.7281  163.3374 C.3     1  UNL1        0.0434
     25 C         142.0766  143.3032  164.5199 C.ar    1  UNL1       -0.0232
     26 C         142.9390  142.7362  165.6085 C.ar    1  UNL1        0.0151
     27 C         142.3150  142.2500  166.8830 C.ar    1  UNL1        0.0871
     28 N         142.9052  141.6468  168.1231 N.ar    1  UNL1       -0.2427
     29 C         141.7837  141.3548  169.0754 C.ar    1  UNL1        0.0886
     30 C         141.9213  140.7468  170.4398 C.3     1  UNL1        0.0594
     31 S         140.5004  141.7775  168.4239 S.2     1  UNL1       -0.0708
     32 C         140.8288  142.3308  167.0690 C.ar    1  UNL1        0.0478
     33 C         139.9665  142.8978  165.9803 C.ar    1  UNL1        0.0035
     34 C         140.5904  143.3839  164.7059 C.ar    1  UNL1       -0.0241
     35 C         139.5561  143.9097  163.7551 C.3     1  UNL1        0.0434
     36 C         139.7527  144.4844  162.3836 C.3     1  UNL1        0.0768
@<TRIPOS>BOND
     1     8     9    1
     2     9    10   ar
     3    10    11   ar
     4    11    12   ar
     5    12    13   ar
     6    13     2    1
     7     2     3   ar
     8     3     4   ar
     9     4     5   ar
    10     5     1    1
    11     1    19    1
    12    19    20    1
    13    20    21    1
    14    21    22    1
    15    22    23    1
    16    23    24    1
    17    24    25    1
    18    25    26   ar
    19    26    27   ar
    20    27    28   ar
    21    28    29   ar
    22    29    30    1
    23    29    31   ar
    24    31    32   ar
    25    32    33   ar
    26    33    34   ar
    27    34    35    1
    28    35    36    1
    29     5     6   ar
    30     6     7    1
    31    13    14   ar
    32    14    15   ar
    33    15    16   ar
    34    16    17   ar
    35    17    18   ar
    36    18     9   ar
    37    17    12   ar
    38     6     2   ar
    39    36    22    1
    40    34    25   ar
    41    32    27   ar
@<TRIPOS>MOLECULE
*****
 36 41 0 0 0
SMALL
GASTEIGER

@<TRIPOS>ATOM
      1 S         138.8207  140.6740  157.5663 S.3     1  UNL1       -0.0756
      2 C         139.4076  142.8002  160.7600 C.ar    1  UNL1        0.1669
      3 N         140.3704  143.4407  159.8044 N.ar    1  UNL1       -0.1282
      4 N         140.2677  142.7221  158.4918 N.ar    1  UNL1       -0.1221
      5 C         139.2415  141.6376  158.6361 C.ar    1  UNL1        0.1932
      6 N         138.7100  141.6859  160.0379 N.ar    1  UNL1       -0.2884
      7 C         137.6643  140.7791  160.6161 C.3     1  UNL1        0.1340
      8 C         143.5682  142.5252  166.2249 C.3     1  UNL1        0.0521
      9 C         142.4717  142.6948  165.2154 C.ar    1  UNL1        0.0593
     10 C         142.6971  142.2916  163.7883 C.ar    1  UNL1        0.0147
     11 C         141.6006  142.4611  162.7789 C.ar    1  UNL1        0.0028
     12 C         140.2787  143.0339  163.1965 C.ar    1  UNL1        0.0206
     13 C         139.1822  143.2034  162.1871 C.ar    1  UNL1        0.0374
     14 C         137.8603  143.7761  162.6048 C.ar    1  UNL1        0.0031
     15 C         137.6348  144.1793  164.0319 C.ar    1  UNL1        0.0016
     16 C         138.7312  144.0097  165.0413 C.ar    1  UNL1        0.0191
     17 C         140.0532  143.4370  164.6237 C.ar    1  UNL1        0.0810
     18 N         141.1497  143.2675  165.6331 N.ar    1  UNL1       -0.2497
     19 C         139.5014  139.3428  157.4461 C.3     1  UNL1        0.0666
     20 C         139.6743  138.4767  158.6586 C.3     1  UNL1        0.0294
     21 C         141.0334  138.3041  159.2693 C.3     1  UNL1        0.0730
     22 N         141.2226  138.4960  160.7449 N.3     1  UNL1       -0.2720
     23 C         142.5885  138.1719  161.2735 C.3     1  UNL1        0.0768
     24 C         143.0900  138.2583  162.6846 C.3     1  UNL1        0.0434
     25 C         142.3495  138.6902  163.9154 C.ar    1  UNL1       -0.0232
     26 C         143.2258  138.6303  165.1315 C.ar    1  UNL1        0.0151
     27 C         142.6772  139.0226  166.4713 C.ar    1  UNL1        0.0871
     28 N         143.2974  139.0654  167.8364 N.ar    1  UNL1       -0.2427
     29 C         142.2558  139.5439  168.8040 C.ar    1  UNL1        0.0886
     30 C         142.4451  139.7358  170.2796 C.3     1  UNL1        0.0594
     31 S         140.9920  139.7969  168.0369 S.2     1  UNL1       -0.0708
     32 C         141.2523  139.4747  166.5953 C.ar    1  UNL1        0.0478
     33 C         140.3760  139.5346  165.3792 C.ar    1  UNL1        0.0035
     34 C         140.9246  139.1423  164.0394 C.ar    1  UNL1       -0.0241
     35 C         139.8883  139.2742  162.9630 C.3     1  UNL1        0.0434
     36 C         140.0210  138.9865  161.4968 C.3     1  UNL1        0.0768
@<TRIPOS>BOND
     1     8     9    1
     2     9    10   ar
     3    10    11   ar
     4    11    12   ar
     5    12    13   ar
     6    13     2    1
     7     2     3   ar
     8     3     4   ar
     9     4     5   ar
    10     5     1    1
    11     1    19    1
    12    19    20    1
    13    20    21    1
    14    21    22    1
    15    22    23    1
    16    23    24    1
    17    24    25    1
    18    25    26   ar
    19    26    27   ar
    20    27    28   ar
    21    28    29   ar
    22    29    30    1
    23    29    31   ar
    24    31    32   ar
    25    32    33   ar
    26    33    34   ar
    27    34    35    1
    28    35    36    1
    29     5     6   ar
    30     6     7    1
    31    13    14   ar
    32    14    15   ar
    33    15    16   ar
    34    16    17   ar
    35    17    18   ar
    36    18     9   ar
    37    17    12   ar
    38     6     2   ar
    39    36    22    1
    40    34    25   ar
    41    32    27   ar
@<TRIPOS>MOLECULE
*****
 36 41 0 0 0
SMALL
GASTEIGER

@<TRIPOS>ATOM
      1 S         140.6353  139.0736  157.9391 S.3     1  UNL1       -0.0756
      2 C         139.3479  141.1093  160.9827 C.ar    1  UNL1        0.1669
      3 N         138.5414  139.8512  161.1134 N.ar    1  UNL1       -0.1282
      4 N         138.9256  138.9356  159.9891 N.ar    1  UNL1       -0.1221
      5 C         139.9694  139.6277  159.1636 C.ar    1  UNL1        0.1932
      6 N         140.2304  140.9711  159.7777 N.ar    1  UNL1       -0.2884
      7 C         141.2031  141.9964  159.2750 C.3     1  UNL1        0.1340
      8 C         144.1217  143.9232  165.0500 C.3     1  UNL1        0.0521
      9 C         142.9121  143.5166  164.2616 C.ar    1  UNL1        0.0593
     10 C         142.9769  142.3289  163.3477 C.ar    1  UNL1        0.0147
     11 C         141.7672  141.9224  162.5594 C.ar    1  UNL1        0.0028
     12 C         140.4928  142.7035  162.6849 C.ar    1  UNL1        0.0206
     13 C         139.2831  142.2970  161.8966 C.ar    1  UNL1        0.0374
     14 C         138.0088  143.0781  162.0222 C.ar    1  UNL1        0.0031
     15 C         137.9441  144.2658  162.9361 C.ar    1  UNL1        0.0016
     16 C         139.1536  144.6723  163.7244 C.ar    1  UNL1        0.0191
     17 C         140.4280  143.8912  163.5988 C.ar    1  UNL1        0.0810
     18 N         141.6377  144.2978  164.3872 N.ar    1  UNL1       -0.2497
     19 C         141.9248  138.3176  158.0638 C.3     1  UNL1        0.0666
     20 C         142.8321  138.5698  159.2315 C.3     1  UNL1        0.0294
     21 C         142.8969  137.5815  160.3580 C.3     1  UNL1        0.0730
     22 N         142.6356  138.0302  161.7653 N.3     1  UNL1       -0.2720
     23 C         141.2073  137.9551  162.2177 C.3     1  UNL1        0.0768
     24 C         140.6278  138.3259  163.5507 C.3     1  UNL1        0.0434
     25 C         141.3333  138.8634  164.7602 C.ar    1  UNL1       -0.0232
     26 C         140.3773  139.1022  165.8912 C.ar    1  UNL1        0.0151
     27 C         140.8806  139.6405  167.1977 C.ar    1  UNL1        0.0871
     28 N         140.1811  139.9747  168.4819 N.ar    1  UNL1       -0.2427
     29 C         141.2081  140.4807  169.4510 C.ar    1  UNL1        0.0886
     30 C         140.9467  140.9294  170.8583 C.3     1  UNL1        0.0594
     31 S         142.5423  140.4592  168.7659 S.2     1  UNL1       -0.0708
     32 C         142.3399  139.9400  167.3733 C.ar    1  UNL1        0.0478
     33 C         143.2959  139.7011  166.2423 C.ar    1  UNL1        0.0035
     34 C         142.7926  139.1629  164.9359 C.ar    1  UNL1       -0.0241
     35 C         143.9068  138.9988  163.9451 C.3     1  UNL1        0.0434
     36 C         143.8368  138.4947  162.5340 C.3     1  UNL1        0.0768
@<TRIPOS>BOND
     1     8     9    1
     2     9    10   ar
     3    10    11   ar
     4    11    12   ar
     5    12    13   ar
     6    13     2    1
     7     2     3   ar
     8     3     4   ar
     9     4     5   ar
    10     5     1    1
    11     1    19    1
    12    19    20    1
    13    20    21    1
    14    21    22    1
    15    22    23    1
    16    23    24    1
    17    24    25    1
    18    25    26   ar
    19    26    27   ar
    20    27    28   ar
    21    28    29   ar
    22    29    30    1
    23    29    31   ar
    24    31    32   ar
    25    32    33   ar
    26    33    34   ar
    27    34    35    1
    28    35    36    1
    29     5     6   ar
    30     6     7    1
    31    13    14   ar
    32    14    15   ar
    33    15    16   ar
    34    16    17   ar
    35    17    18   ar
    36    18     9   ar
    37    17    12   ar
    38     6     2   ar
    39    36    22    1
    40    34    25   ar
    41    32    27   ar
@<TRIPOS>MOLECULE
*****
 36 41 0 0 0
SMALL
GASTEIGER

@<TRIPOS>ATOM
      1 S         139.5913  140.2987  157.0438 S.3     1  UNL1       -0.0756
      2 C         140.9057  143.0159  159.4840 C.ar    1  UNL1        0.1669
      3 N         142.0367  142.9368  158.5018 N.ar    1  UNL1       -0.1282
      4 N         141.6819  141.9093  157.4682 N.ar    1  UNL1       -0.1221
      5 C         140.3317  141.3534  157.8116 C.ar    1  UNL1        0.1932
      6 N         139.8520  142.0373  159.0574 N.ar    1  UNL1       -0.2884
      7 C         138.5476  141.7866  159.7543 C.3     1  UNL1        0.1340
      8 C         143.4542  142.2608  165.8232 C.3     1  UNL1        0.0521
      9 C         142.8007  142.6745  164.5380 C.ar    1  UNL1        0.0593
     10 C         142.8664  141.7747  163.3396 C.ar    1  UNL1        0.0147
     11 C         142.2128  142.1885  162.0544 C.ar    1  UNL1        0.0028
     12 C         141.4936  143.5019  161.9676 C.ar    1  UNL1        0.0206
     13 C         140.8400  143.9156  160.6823 C.ar    1  UNL1        0.0374
     14 C         140.1208  145.2291  160.5956 C.ar    1  UNL1        0.0031
     15 C         140.0551  146.1288  161.7940 C.ar    1  UNL1        0.0016
     16 C         140.7086  145.7152  163.0791 C.ar    1  UNL1        0.0191
     17 C         141.4279  144.4017  163.1660 C.ar    1  UNL1        0.0810
     18 N         142.0814  143.9880  164.4512 N.ar    1  UNL1       -0.2497
     19 C         139.5910  138.8793  157.5288 C.3     1  UNL1        0.0666
     20 C         140.1865  138.5428  158.8639 C.3     1  UNL1        0.0294
     21 C         139.2920  138.2311  160.0269 C.3     1  UNL1        0.0730
     22 N         139.7696  138.4767  161.4275 N.3     1  UNL1       -0.2720
     23 C         141.1254  137.9268  161.7585 C.3     1  UNL1        0.0768
     24 C         141.8748  138.0041  163.0557 C.3     1  UNL1        0.0434
     25 C         141.4535  138.6504  164.3419 C.ar    1  UNL1       -0.0232
     26 C         142.5046  138.4988  165.4014 C.ar    1  UNL1        0.0151
     27 C         142.2810  139.0758  166.7678 C.ar    1  UNL1        0.0871
     28 N         143.1291  139.0843  168.0049 N.ar    1  UNL1       -0.2427
     29 C         142.3787  139.8181  169.0765 C.ar    1  UNL1        0.0886
     30 C         142.8564  140.0637  170.4770 C.3     1  UNL1        0.0594
     31 S         141.0667  140.2632  168.5016 S.2     1  UNL1       -0.0708
     32 C         141.0062  139.8045  167.0749 C.ar    1  UNL1        0.0478
     33 C         139.9552  139.9560  166.0154 C.ar    1  UNL1        0.0035
     34 C         140.1788  139.3790  164.6490 C.ar    1  UNL1       -0.0241
     35 C         139.0105  139.6413  163.7455 C.3     1  UNL1        0.0434
     36 C         138.8285  139.2397  162.3117 C.3     1  UNL1        0.0768
@<TRIPOS>BOND
     1     8     9    1
     2     9    10   ar
     3    10    11   ar
     4    11    12   ar
     5    12    13   ar
     6    13     2    1
     7     2     3   ar
     8     3     4   ar
     9     4     5   ar
    10     5     1    1
    11     1    19    1
    12    19    20    1
    13    20    21    1
    14    21    22    1
    15    22    23    1
    16    23    24    1
    17    24    25    1
    18    25    26   ar
    19    26    27   ar
    20    27    28   ar
    21    28    29   ar
    22    29    30    1
    23    29    31   ar
    24    31    32   ar
    25    32    33   ar
    26    33    34   ar
    27    34    35    1
    28    35    36    1
    29     5     6   ar
    30     6     7    1
    31    13    14   ar
    32    14    15   ar
    33    15    16   ar
    34    16    17   ar
    35    17    18   ar
    36    18     9   ar
    37    17    12   ar
    38     6     2   ar
    39    36    22    1
    40    34    25   ar
    41    32    27   ar
@<TRIPOS>MOLECULE
*****
 36 41 0 0 0
SMALL
GASTEIGER

@<TRIPOS>ATOM
      1 S         142.5391  140.3373  157.7392 S.3     1  UNL1       -0.0756
      2 C         140.4164  140.4477  160.9869 C.ar    1  UNL1        0.1669
      3 N         140.8978  139.0270  161.0034 N.ar    1  UNL1       -0.1282
      4 N         141.7515  138.8129  159.7888 N.ar    1  UNL1       -0.1221
      5 C         141.7978  140.1010  159.0217 C.ar    1  UNL1        0.1932
      6 N         140.9726  141.1113  159.7621 N.ar    1  UNL1       -0.2884
      7 C         140.7439  142.5355  159.3502 C.3     1  UNL1        0.1340
      8 C         137.8239  137.9972  166.8627 C.3     1  UNL1        0.0521
      9 C         138.2514  138.7708  165.6507 C.ar    1  UNL1        0.0593
     10 C         139.1341  138.1270  164.6228 C.ar    1  UNL1        0.0147
     11 C         139.5615  138.9006  163.4109 C.ar    1  UNL1        0.0028
     12 C         139.1063  140.3179  163.2267 C.ar    1  UNL1        0.0206
     13 C         139.5338  141.0915  162.0147 C.ar    1  UNL1        0.0374
     14 C         139.0785  142.5088  161.8306 C.ar    1  UNL1        0.0031
     15 C         138.1959  143.1526  162.8585 C.ar    1  UNL1        0.0016
     16 C         137.7685  142.3791  164.0704 C.ar    1  UNL1        0.0191
     17 C         138.2236  140.9617  164.2545 C.ar    1  UNL1        0.0810
     18 N         137.7962  140.1882  165.4666 N.ar    1  UNL1       -0.2497
     19 C         143.9202  140.9218  157.7681 C.3     1  UNL1        0.0666
     20 C         144.1392  142.3022  158.3128 C.3     1  UNL1        0.0294
     21 C         144.8785  142.4903  159.6043 C.3     1  UNL1        0.0730
     22 N         144.1865  142.2300  160.9094 N.3     1  UNL1       -0.2720
     23 C         144.3550  140.8494  161.4714 C.3     1  UNL1        0.0768
     24 C         143.7961  140.2826  162.7428 C.3     1  UNL1        0.0434
     25 C         142.9308  140.9562  163.7661 C.ar    1  UNL1       -0.0232
     26 C         142.5917  140.0273  164.8941 C.ar    1  UNL1        0.0151
     27 C         141.7323  140.5053  166.0267 C.ar    1  UNL1        0.0871
     28 N         141.2350  139.8231  167.2665 N.ar    1  UNL1       -0.2427
     29 C         140.4074  140.8083  168.0376 C.ar    1  UNL1        0.0886
     30 C         139.7154  140.5479  169.3427 C.3     1  UNL1        0.0594
     31 S         140.3932  142.0994  167.2743 S.2     1  UNL1       -0.0708
     32 C         141.2121  141.9122  166.0316 C.ar    1  UNL1        0.0478
     33 C         141.5512  142.8411  164.9037 C.ar    1  UNL1        0.0035
     34 C         142.4106  142.3631  163.7710 C.ar    1  UNL1       -0.0241
     35 C         142.6272  143.4438  162.7536 C.3     1  UNL1        0.0434
     36 C         143.4176  143.3845  161.4800 C.3     1  UNL1        0.0768
@<TRIPOS>BOND
     1     8     9    1
     2     9    10   ar
     3    10    11   ar
     4    11    12   ar
     5    12    13   ar
     6    13     2    1
     7     2     3   ar
     8     3     4   ar
     9     4     5   ar
    10     5     1    1
    11     1    19    1
    12    19    20    1
    13    20    21    1
    14    21    22    1
    15    22    23    1
    16    23    24    1
    17    24    25    1
    18    25    26   ar
    19    26    27   ar
    20    27    28   ar
    21    28    29   ar
    22    29    30    1
    23    29    31   ar
    24    31    32   ar
    25    32    33   ar
    26    33    34   ar
    27    34    35    1
    28    35    36    1
    29     5     6   ar
    30     6     7    1
    31    13    14   ar
    32    14    15   ar
    33    15    16   ar
    34    16    17   ar
    35    17    18   ar
    36    18     9   ar
    37    17    12   ar
    38     6     2   ar
    39    36    22    1
    40    34    25   ar
    41    32    27   ar
@<TRIPOS>MOLECULE
*****
 36 41 0 0 0
SMALL
GASTEIGER

@<TRIPOS>ATOM
      1 S         142.2422  139.1773  156.3350 S.3     1  UNL1       -0.0756
      2 C         141.6730  138.6547  160.1388 C.ar    1  UNL1        0.1669
      3 N         143.1560  138.8760  160.0953 N.ar    1  UNL1       -0.1282
      4 N         143.5496  139.0987  158.6652 N.ar    1  UNL1       -0.1221
      5 C         142.3100  139.0150  157.8247 C.ar    1  UNL1        0.1932
      6 N         141.1503  138.7406  158.7354 N.ar    1  UNL1       -0.2884
      7 C         139.7189  138.5802  158.3164 C.3     1  UNL1        0.1340
      8 C         143.4433  138.5694  166.7802 C.3     1  UNL1        0.0521
      9 C         142.7966  138.5254  165.4275 C.ar    1  UNL1        0.0593
     10 C         143.6133  138.7868  164.1968 C.ar    1  UNL1        0.0147
     11 C         142.9665  138.7427  162.8442 C.ar    1  UNL1        0.0028
     12 C         141.5030  138.4373  162.7221 C.ar    1  UNL1        0.0206
     13 C         140.8563  138.3933  161.3694 C.ar    1  UNL1        0.0374
     14 C         139.3928  138.0879  161.2475 C.ar    1  UNL1        0.0031
     15 C         138.5760  137.8266  162.4782 C.ar    1  UNL1        0.0016
     16 C         139.2228  137.8706  163.8308 C.ar    1  UNL1        0.0191
     17 C         140.6863  138.1760  163.9528 C.ar    1  UNL1        0.0810
     18 N         141.3330  138.2200  165.3056 N.ar    1  UNL1       -0.2497
     19 C         141.5527  140.3697  155.7412 C.3     1  UNL1        0.0666
     20 C         141.6897  141.7154  156.3898 C.3     1  UNL1        0.0294
     21 C         140.6522  142.1871  157.3649 C.3     1  UNL1        0.0730
     22 N         140.9486  142.1844  158.8353 N.3     1  UNL1       -0.2720
     23 C         139.7810  141.9031  159.7340 C.3     1  UNL1        0.0768
     24 C         139.7498  141.8313  161.2321 C.3     1  UNL1        0.0434
     25 C         140.8785  142.0231  162.2012 C.ar    1  UNL1       -0.0232
     26 C         140.4158  141.8653  163.6193 C.ar    1  UNL1        0.0151
     27 C         141.3918  142.0185  164.7481 C.ar    1  UNL1        0.0871
     28 N         141.2291  141.9199  166.2359 N.ar    1  UNL1       -0.2427
     29 C         142.5672  142.1699  166.8661 C.ar    1  UNL1        0.0886
     30 C         142.8635  142.1672  168.3366 C.3     1  UNL1        0.0594
     31 S         143.5568  142.4230  165.7677 S.2     1  UNL1       -0.0708
     32 C         142.8304  142.3295  164.4587 C.ar    1  UNL1        0.0478
     33 C         143.2930  142.4873  163.0405 C.ar    1  UNL1        0.0035
     34 C         142.3171  142.3341  161.9118 C.ar    1  UNL1       -0.0241
     35 C         142.9823  142.5300  160.5818 C.3     1  UNL1        0.0434
     36 C         142.3732  142.4634  159.2126 C.3     1  UNL1        0.0768
@<TRIPOS>BOND
     1     8     9    1
     2     9    10   ar
     3    10    11   ar
     4    11    12   ar
     5    12    13   ar
     6    13     2    1
     7     2     3   ar
     8     3     4   ar
     9     4     5   ar
    10     5     1    1
    11     1    19    1
    12    19    20    1
    13    20    21    1
    14    21    22    1
    15    22    23    1
    16    23    24    1
    17    24    25    1
    18    25    26   ar
    19    26    27   ar
    20    27    28   ar
    21    28    29   ar
    22    29    30    1
    23    29    31   ar
    24    31    32   ar
    25    32    33   ar
    26    33    34   ar
    27    34    35    1
    28    35    36    1
    29     5     6   ar
    30     6     7    1
    31    13    14   ar
    32    14    15   ar
    33    15    16   ar
    34    16    17   ar
    35    17    18   ar
    36    18     9   ar
    37    17    12   ar
    38     6     2   ar
    39    36    22    1
    40    34    25   ar
    41    32    27   ar
