@<TRIPOS>MOLECULE
*****
 39 41 0 0 0
SMALL
GASTEIGER

@<TRIPOS>ATOM
      1 C         141.7534  138.2856  158.8203 C.2     1  UNL1        0.2317
      2 O         142.5955  137.6058  159.8590 O.2     1  UNL1       -0.2744
      3 N         140.4954  138.9967  159.2225 N.am    1  UNL1       -0.2836
      4 H         139.9428  139.4429  158.5407 H       1  UNL1        0.1549
      5 C         140.0795  139.0280  160.6633 C.ar    1  UNL1        0.0503
      6 C         139.0449  138.0654  161.1663 C.ar    1  UNL1        0.0144
      7 C         138.6289  138.0966  162.6071 C.ar    1  UNL1       -0.0002
      8 C         139.2475  139.0905  163.5450 C.ar    1  UNL1        0.0182
      9 C         140.2821  140.0532  163.0420 C.ar    1  UNL1       -0.0002
     10 C         140.6980  140.0219  161.6011 C.ar    1  UNL1        0.0144
     11 C         138.8315  139.1218  164.9858 C.3     1  UNL1        0.2827
     12 O         139.4119  137.7528  165.1831 O.3     1  UNL1       -0.3692
     13 H         139.2834  137.4767  166.1040 H       1  UNL1        0.2112
     14 C         138.4156  139.1530  166.4266 C.3     1  UNL1        0.4311
     15 F         137.9996  139.1843  167.8675 F       1  UNL1       -0.1669
     16 F         139.8550  139.2354  166.8404 F       1  UNL1       -0.1669
     17 F         137.5420  139.1070  166.2879 F       1  UNL1       -0.1669
     18 C         138.2512  140.4908  164.7886 C.3     1  UNL1        0.4311
     19 F         137.6708  141.8598  164.5913 F       1  UNL1       -0.1669
     20 F         137.5979  140.2530  164.2396 F       1  UNL1       -0.1669
     21 F         139.1230  141.3788  165.6260 F       1  UNL1       -0.1669
     22 C         142.1694  138.2543  157.3795 C.3     1  UNL1        0.1233
     23 C         145.6133  140.7883  155.9763 C.ar    1  UNL1        0.1056
     24 C         145.1894  139.5907  155.1787 C.ar    1  UNL1        0.0180
     25 C         144.0415  138.7461  155.6464 C.ar    1  UNL1       -0.0024
     26 C         143.3174  139.0990  156.9118 C.ar    1  UNL1       -0.0118
     27 C         143.7412  140.2965  157.7094 C.ar    1  UNL1       -0.0024
     28 C         144.8892  141.1411  157.2416 C.ar    1  UNL1        0.0180
     29 S         146.7612  141.6329  155.5086 S.O2    1  UNL1        0.0087
     30 O         146.6235  141.0569  154.1304 O.2     1  UNL1       -0.1686
     31 O         146.8989  142.2090  156.8867 O.2     1  UNL1       -0.1686
     32 C         149.2973  141.9098  155.0171 C.3     1  UNL1        0.0276
     33 C         147.9092  142.4776  155.0408 C.3     1  UNL1        0.1560
     34 C         141.4375  137.3783  156.4065 C.3     1  UNL1        0.1409
     35 N         141.8178  135.9343  156.2641 N.ar    1  UNL1       -0.2486
     36 C         142.9482  135.2465  156.9706 C.ar    1  UNL1        0.0967
     37 C         142.9635  133.8117  156.5335 C.ar    1  UNL1        0.0427
     38 C         141.8425  133.6127  155.5568 C.ar    1  UNL1        0.1217
     39 N         141.1344  134.9246  155.3903 N.ar    1  UNL1       -0.1676
@<TRIPOS>BOND
     1    32    33    1
     2    33    29    1
     3    29    30    2
     4    29    31    2
     5    29    23    1
     6    23    24   ar
     7    24    25   ar
     8    25    26   ar
     9    26    22    1
    10    22    34    1
    11    34    35    1
    12    35    36   ar
    13    36    37   ar
    14    37    38   ar
    15    38    39   ar
    16    22     1    1
    17     1     2    2
    18     1     3   am
    19     3     5    1
    20     5     6   ar
    21     6     7   ar
    22     7     8   ar
    23     8    11    1
    24    11    12    1
    25    11    14    1
    26    14    15    1
    27    14    16    1
    28    14    17    1
    29    11    18    1
    30    18    19    1
    31    18    20    1
    32    18    21    1
    33     8     9   ar
    34     9    10   ar
    35    26    27   ar
    36    27    28   ar
    37    28    23   ar
    38    39    35   ar
    39    10     5   ar
    40     3     4    1
    41    12    13    1
@<TRIPOS>MOLECULE
*****
 39 41 0 0 0
SMALL
GASTEIGER

@<TRIPOS>ATOM
      1 C         140.5462  138.6760  157.3017 C.2     1  UNL1        0.2317
      2 O         141.6373  139.5013  157.9169 O.2     1  UNL1       -0.2744
      3 N         139.1644  138.7052  157.8848 N.am    1  UNL1       -0.2836
      4 H         138.4483  138.1635  157.4810 H       1  UNL1        0.1549
      5 C         138.8738  139.5596  159.0830 C.ar    1  UNL1        0.0503
      6 C         138.5862  141.0215  158.9096 C.ar    1  UNL1        0.0144
      7 C         138.2957  141.8759  160.1078 C.ar    1  UNL1       -0.0002
      8 C         138.2926  141.2684  161.4793 C.ar    1  UNL1        0.0182
      9 C         138.5802  139.8064  161.6526 C.ar    1  UNL1       -0.0002
     10 C         138.8708  138.9520  160.4544 C.ar    1  UNL1        0.0144
     11 C         138.0021  142.1228  162.6774 C.3     1  UNL1        0.2827
     12 O         136.7081  141.3928  162.8841 O.3     1  UNL1       -0.3692
     13 H         136.2520  141.7564  163.6591 H       1  UNL1        0.2112
     14 C         137.7115  142.9772  163.8755 C.3     1  UNL1        0.4311
     15 F         137.4209  143.8316  165.0737 F       1  UNL1       -0.1669
     16 F         138.1698  141.8692  164.7768 F       1  UNL1       -0.1669
     17 F         137.4220  143.6880  163.4336 F       1  UNL1       -0.1669
     18 C         139.2960  142.8527  162.4707 C.3     1  UNL1        0.4311
     19 F         140.5901  143.5827  162.2640 F       1  UNL1       -0.1669
     20 F         139.8208  142.2546  162.8598 F       1  UNL1       -0.1669
     21 F         138.8947  144.1066  161.7518 F       1  UNL1       -0.1669
     22 C         140.8368  137.8217  156.1036 C.3     1  UNL1        0.1233
     23 C         142.9911  133.9026  156.6038 C.ar    1  UNL1        0.1056
     24 C         141.8788  134.0249  155.6048 C.ar    1  UNL1        0.0180
     25 C         141.1608  135.3313  155.4381 C.ar    1  UNL1       -0.0024
     26 C         141.5549  136.5153  156.2703 C.ar    1  UNL1       -0.0118
     27 C         142.6671  136.3930  157.2693 C.ar    1  UNL1       -0.0024
     28 C         143.3852  135.0866  157.4360 C.ar    1  UNL1        0.0180
     29 S         143.7091  132.5962  156.7705 S.O2    1  UNL1        0.0087
     30 O         144.6235  133.2275  157.7783 O.2     1  UNL1       -0.1686
     31 O         142.7948  131.9650  155.7628 O.2     1  UNL1       -0.1686
     32 C         144.8871  130.5275  155.7302 C.3     1  UNL1        0.0276
     33 C         144.4272  131.2899  156.9373 C.3     1  UNL1        0.1560
     34 C         140.4094  138.2737  154.7387 C.3     1  UNL1        0.1409
     35 N         139.0204  137.9823  154.2530 N.ar    1  UNL1       -0.2486
     36 C         138.6591  137.3569  152.9383 C.ar    1  UNL1        0.0967
     37 C         137.1643  137.2533  152.8695 C.ar    1  UNL1        0.0427
     38 C         136.6017  137.8147  154.1416 C.ar    1  UNL1        0.1217
     39 N         137.7488  138.2653  154.9967 N.ar    1  UNL1       -0.1676
@<TRIPOS>BOND
     1    32    33    1
     2    33    29    1
     3    29    30    2
     4    29    31    2
     5    29    23    1
     6    23    24   ar
     7    24    25   ar
     8    25    26   ar
     9    26    22    1
    10    22    34    1
    11    34    35    1
    12    35    36   ar
    13    36    37   ar
    14    37    38   ar
    15    38    39   ar
    16    22     1    1
    17     1     2    2
    18     1     3   am
    19     3     5    1
    20     5     6   ar
    21     6     7   ar
    22     7     8   ar
    23     8    11    1
    24    11    12    1
    25    11    14    1
    26    14    15    1
    27    14    16    1
    28    14    17    1
    29    11    18    1
    30    18    19    1
    31    18    20    1
    32    18    21    1
    33     8     9   ar
    34     9    10   ar
    35    26    27   ar
    36    27    28   ar
    37    28    23   ar
    38    39    35   ar
    39    10     5   ar
    40     3     4    1
    41    12    13    1
@<TRIPOS>MOLECULE
*****
 39 41 0 0 0
SMALL
GASTEIGER

@<TRIPOS>ATOM
      1 C         140.5599  139.0842  158.9844 C.2     1  UNL1        0.2317
      2 O         141.4670  140.0118  159.7373 O.2     1  UNL1       -0.2744
      3 N         139.4744  138.3448  159.7091 N.am    1  UNL1       -0.2836
      4 H         138.8791  137.7360  159.2150 H       1  UNL1        0.1549
      5 C         139.2962  138.5329  161.1865 C.ar    1  UNL1        0.0503
      6 C         140.1774  137.7927  162.1486 C.ar    1  UNL1        0.0144
      7 C         139.9992  137.9808  163.6260 C.ar    1  UNL1       -0.0002
      8 C         138.9396  138.9092  164.1414 C.ar    1  UNL1        0.0182
      9 C         138.0584  139.6494  163.1794 C.ar    1  UNL1       -0.0002
     10 C         138.2367  139.4613  161.7019 C.ar    1  UNL1        0.0144
     11 C         138.7614  139.0973  165.6189 C.3     1  UNL1        0.2827
     12 O         138.4474  137.6381  165.7668 O.3     1  UNL1       -0.3692
     13 H         138.2710  137.4382  166.6994 H       1  UNL1        0.2112
     14 C         138.5831  139.2854  167.0963 C.3     1  UNL1        0.4311
     15 F         138.4048  139.4736  168.5738 F       1  UNL1       -0.1669
     16 F         137.1821  138.7594  166.9942 F       1  UNL1       -0.1669
     17 F         139.3914  139.6073  167.2625 F       1  UNL1       -0.1669
     18 C         139.0754  140.5566  165.4709 C.3     1  UNL1        0.4311
     19 F         139.3894  142.0159  165.3230 F       1  UNL1       -0.1669
     20 F         138.2554  140.8587  165.6157 F       1  UNL1       -0.1669
     21 F         140.5462  140.5835  165.1778 F       1  UNL1       -0.1669
     22 C         140.7382  138.8961  157.5070 C.3     1  UNL1        0.1233
     23 C         142.2408  134.9689  155.9040 C.ar    1  UNL1        0.1056
     24 C         140.9604  135.5511  155.3829 C.ar    1  UNL1        0.0180
     25 C         140.4595  136.8602  155.9173 C.ar    1  UNL1       -0.0024
     26 C         141.2391  137.5870  156.9727 C.ar    1  UNL1       -0.0118
     27 C         142.5194  137.0048  157.4938 C.ar    1  UNL1       -0.0024
     28 C         143.0203  135.6958  156.9595 C.ar    1  UNL1        0.0180
     29 S         142.7416  133.6599  155.3697 S.O2    1  UNL1        0.0087
     30 O         144.0462  133.8691  156.0798 O.2     1  UNL1       -0.1686
     31 O         141.4371  133.4506  154.6595 O.2     1  UNL1       -0.1686
     32 C         144.3157  131.6026  155.5689 C.3     1  UNL1        0.0276
     33 C         143.2425  132.3508  154.8353 C.3     1  UNL1        0.1560
     34 C         140.4157  140.0170  156.5640 C.3     1  UNL1        0.1409
     35 N         139.0920  140.7168  156.6554 N.ar    1  UNL1       -0.2486
     36 C         138.8848  142.1918  156.8322 C.ar    1  UNL1        0.0967
     37 C         137.4079  142.4510  156.8722 C.ar    1  UNL1        0.0427
     38 C         136.7023  141.1361  156.7202 C.ar    1  UNL1        0.1217
     39 N         137.7431  140.0642  156.5862 N.ar    1  UNL1       -0.1676
@<TRIPOS>BOND
     1    32    33    1
     2    33    29    1
     3    29    30    2
     4    29    31    2
     5    29    23    1
     6    23    24   ar
     7    24    25   ar
     8    25    26   ar
     9    26    22    1
    10    22    34    1
    11    34    35    1
    12    35    36   ar
    13    36    37   ar
    14    37    38   ar
    15    38    39   ar
    16    22     1    1
    17     1     2    2
    18     1     3   am
    19     3     5    1
    20     5     6   ar
    21     6     7   ar
    22     7     8   ar
    23     8    11    1
    24    11    12    1
    25    11    14    1
    26    14    15    1
    27    14    16    1
    28    14    17    1
    29    11    18    1
    30    18    19    1
    31    18    20    1
    32    18    21    1
    33     8     9   ar
    34     9    10   ar
    35    26    27   ar
    36    27    28   ar
    37    28    23   ar
    38    39    35   ar
    39    10     5   ar
    40     3     4    1
    41    12    13    1
@<TRIPOS>MOLECULE
*****
 39 41 0 0 0
SMALL
GASTEIGER

@<TRIPOS>ATOM
      1 C         141.1912  139.0291  159.0028 C.2     1  UNL1        0.2317
      2 O         141.9351  139.9896  159.8828 O.2     1  UNL1       -0.2744
      3 N         140.0681  138.2106  159.5672 N.am    1  UNL1       -0.2836
      4 H         139.5799  137.5802  158.9896 H       1  UNL1        0.1549
      5 C         139.6888  138.3524  161.0116 C.ar    1  UNL1        0.0503
      6 C         138.4315  139.0781  161.3891 C.ar    1  UNL1        0.0144
      7 C         138.0523  139.2199  162.8333 C.ar    1  UNL1       -0.0002
      8 C         138.9303  138.6360  163.9002 C.ar    1  UNL1        0.0182
      9 C         140.1876  137.9103  163.5227 C.ar    1  UNL1       -0.0002
     10 C         140.5669  137.7685  162.0783 C.ar    1  UNL1        0.0144
     11 C         138.5511  138.7779  165.3445 C.3     1  UNL1        0.2827
     12 O         138.5667  137.2856  165.4952 O.3     1  UNL1       -0.3692
     13 H         138.3389  137.0504  166.4082 H       1  UNL1        0.2112
     14 C         138.1718  138.9197  166.7888 C.3     1  UNL1        0.4311
     15 F         137.7926  139.0616  168.2331 F       1  UNL1       -0.1669
     16 F         139.5687  139.3600  167.1124 F       1  UNL1       -0.1669
     17 F         137.3258  138.6719  166.7031 F       1  UNL1       -0.1669
     18 C         138.5354  140.2702  165.1938 C.3     1  UNL1        0.4311
     19 F         138.5197  141.7625  165.0432 F       1  UNL1       -0.1669
     20 F         137.6654  140.3820  165.3173 F       1  UNL1       -0.1669
     21 F         139.9699  140.6240  164.9351 F       1  UNL1       -0.1669
     22 C         141.5705  138.8874  157.5585 C.3     1  UNL1        0.1233
     23 C         142.0269  134.7951  155.7433 C.ar    1  UNL1        0.1056
     24 C         140.9079  135.6910  155.3016 C.ar    1  UNL1        0.0180
     25 C         140.7557  137.0551  155.9066 C.ar    1  UNL1       -0.0024
     26 C         141.7226  137.5233  156.9535 C.ar    1  UNL1       -0.0118
     27 C         142.8416  136.6274  157.3952 C.ar    1  UNL1       -0.0024
     28 C         142.9938  135.2633  156.7901 C.ar    1  UNL1        0.0180
     29 S         142.1791  133.4310  155.1382 S.O2    1  UNL1        0.0087
     30 O         142.2689  134.0465  153.7733 O.2     1  UNL1       -0.1686
     31 O         142.0892  132.8155  156.5032 O.2     1  UNL1       -0.1686
     32 C         143.6625  131.3765  154.5651 C.3     1  UNL1        0.0276
     33 C         142.3312  132.0669  154.5332 C.3     1  UNL1        0.1560
     34 C         141.7976  140.1097  156.7193 C.3     1  UNL1        0.1409
     35 N         143.1793  140.4455  156.2418 N.ar    1  UNL1       -0.2486
     36 C         143.5227  141.1607  154.9688 C.ar    1  UNL1        0.0967
     37 C         145.0159  141.2823  154.8936 C.ar    1  UNL1        0.0427
     38 C         145.5953  140.6422  156.1202 C.ar    1  UNL1        0.1217
     39 N         144.4603  140.1250  156.9534 N.ar    1  UNL1       -0.1676
@<TRIPOS>BOND
     1    32    33    1
     2    33    29    1
     3    29    30    2
     4    29    31    2
     5    29    23    1
     6    23    24   ar
     7    24    25   ar
     8    25    26   ar
     9    26    22    1
    10    22    34    1
    11    34    35    1
    12    35    36   ar
    13    36    37   ar
    14    37    38   ar
    15    38    39   ar
    16    22     1    1
    17     1     2    2
    18     1     3   am
    19     3     5    1
    20     5     6   ar
    21     6     7   ar
    22     7     8   ar
    23     8    11    1
    24    11    12    1
    25    11    14    1
    26    14    15    1
    27    14    16    1
    28    14    17    1
    29    11    18    1
    30    18    19    1
    31    18    20    1
    32    18    21    1
    33     8     9   ar
    34     9    10   ar
    35    26    27   ar
    36    27    28   ar
    37    28    23   ar
    38    39    35   ar
    39    10     5   ar
    40     3     4    1
    41    12    13    1
@<TRIPOS>MOLECULE
*****
 39 41 0 0 0
SMALL
GASTEIGER

@<TRIPOS>ATOM
      1 C         140.7661  141.2054  161.8176 C.2     1  UNL1        0.2317
      2 O         142.1197  141.2084  162.4641 O.2     1  UNL1       -0.2744
      3 N         139.5355  141.0191  162.6548 N.am    1  UNL1       -0.2836
      4 H         138.6471  141.0171  162.2306 H       1  UNL1        0.1549
      5 C         139.6585  140.8358  164.1386 C.ar    1  UNL1        0.0503
      6 C         139.6739  139.4552  164.7250 C.ar    1  UNL1        0.0144
      7 C         139.7969  139.2719  166.2086 C.ar    1  UNL1       -0.0002
      8 C         139.9046  140.4692  167.1059 C.ar    1  UNL1        0.0182
      9 C         139.8892  141.8497  166.5195 C.ar    1  UNL1       -0.0002
     10 C         139.7662  142.0330  165.0358 C.ar    1  UNL1        0.0144
     11 C         140.0276  140.2858  168.5896 C.3     1  UNL1        0.2827
     12 O         138.6832  139.6212  168.6189 O.3     1  UNL1       -0.3692
     13 H         138.4684  139.3662  169.5298 H       1  UNL1        0.2112
     14 C         140.1506  140.1025  170.0732 C.3     1  UNL1        0.4311
     15 F         140.2736  139.9192  171.5569 F       1  UNL1       -0.1669
     16 F         139.0329  141.0797  170.2866 F       1  UNL1       -0.1669
     17 F         140.8146  139.5166  170.0549 F       1  UNL1       -0.1669
     18 C         141.3720  140.9504  168.5602 C.3     1  UNL1        0.4311
     19 F         142.7165  141.6150  168.5308 F       1  UNL1       -0.1669
     20 F         141.8050  140.2998  168.1433 F       1  UNL1       -0.1669
     21 F         141.1408  142.2675  169.2397 F       1  UNL1       -0.1669
     22 C         140.6431  141.3887  160.3340 C.3     1  UNL1        0.1233
     23 C         141.5836  137.9730  157.5592 C.ar    1  UNL1        0.1056
     24 C         140.1583  138.2881  157.9046 C.ar    1  UNL1        0.0180
     25 C         139.8448  139.4267  158.8295 C.ar    1  UNL1       -0.0024
     26 C         140.9566  140.2501  159.4091 C.ar    1  UNL1       -0.0118
     27 C         142.3818  139.9350  159.0637 C.ar    1  UNL1       -0.0024
     28 C         142.6953  138.7965  158.1388 C.ar    1  UNL1        0.0180
     29 S         141.8971  136.8345  156.6343 S.O2    1  UNL1        0.0087
     30 O         140.4546  136.7672  156.2283 O.2     1  UNL1       -0.1686
     31 O         143.3395  136.9018  157.0404 O.2     1  UNL1       -0.1686
     32 C         143.6073  135.5104  155.1949 C.3     1  UNL1        0.0276
     33 C         142.2106  135.6960  155.7094 C.3     1  UNL1        0.1560
     34 C         140.2066  142.7105  159.7752 C.3     1  UNL1        0.1409
     35 N         139.9411  143.8636  160.6971 N.ar    1  UNL1       -0.2486
     36 C         140.7550  145.1198  160.7948 C.ar    1  UNL1        0.0967
     37 C         140.1321  145.9956  161.8412 C.ar    1  UNL1        0.0427
     38 C         138.9331  145.2806  162.3903 C.ar    1  UNL1        0.1217
     39 N         138.8151  143.9629  161.6832 N.ar    1  UNL1       -0.1676
@<TRIPOS>BOND
     1    32    33    1
     2    33    29    1
     3    29    30    2
     4    29    31    2
     5    29    23    1
     6    23    24   ar
     7    24    25   ar
     8    25    26   ar
     9    26    22    1
    10    22    34    1
    11    34    35    1
    12    35    36   ar
    13    36    37   ar
    14    37    38   ar
    15    38    39   ar
    16    22     1    1
    17     1     2    2
    18     1     3   am
    19     3     5    1
    20     5     6   ar
    21     6     7   ar
    22     7     8   ar
    23     8    11    1
    24    11    12    1
    25    11    14    1
    26    14    15    1
    27    14    16    1
    28    14    17    1
    29    11    18    1
    30    18    19    1
    31    18    20    1
    32    18    21    1
    33     8     9   ar
    34     9    10   ar
    35    26    27   ar
    36    27    28   ar
    37    28    23   ar
    38    39    35   ar
    39    10     5   ar
    40     3     4    1
    41    12    13    1
@<TRIPOS>MOLECULE
*****
 39 41 0 0 0
SMALL
GASTEIGER

@<TRIPOS>ATOM
      1 C         139.5841  139.4593  160.6008 C.2     1  UNL1        0.2317
      2 O         139.3999  138.0208  160.9844 O.2     1  UNL1       -0.2744
      3 N         140.2669  139.8103  159.3122 N.am    1  UNL1       -0.2836
      4 H         140.3878  140.7543  159.0604 H       1  UNL1        0.1549
      5 C         140.7656  138.7229  158.4072 C.ar    1  UNL1        0.0503
      6 C         142.1151  138.1116  158.6421 C.ar    1  UNL1        0.0144
      7 C         142.6137  137.0242  157.7372 C.ar    1  UNL1       -0.0002
      8 C         141.7629  136.5481  156.5972 C.ar    1  UNL1        0.0182
      9 C         140.4134  137.1594  156.3623 C.ar    1  UNL1       -0.0002
     10 C         139.9148  138.2468  157.2673 C.ar    1  UNL1        0.0144
     11 C         142.2616  135.4608  155.6923 C.3     1  UNL1        0.2827
     12 O         140.9573  134.7358  155.8447 O.3     1  UNL1       -0.3692
     13 H         140.9802  133.9166  155.3258 H       1  UNL1        0.2112
     14 C         142.7603  134.3734  154.7874 C.3     1  UNL1        0.4311
     15 F         143.2590  133.2860  153.8824 F       1  UNL1       -0.1669
     16 F         142.7385  133.4081  155.9353 F       1  UNL1       -0.1669
     17 F         142.8089  134.8608  154.0495 F       1  UNL1       -0.1669
     18 C         143.5659  136.1857  155.5399 C.3     1  UNL1        0.4311
     19 F         144.8702  136.9107  155.3876 F       1  UNL1       -0.1669
     20 F         144.0575  135.6251  156.0181 F       1  UNL1       -0.1669
     21 F         143.2231  137.3756  154.6934 F       1  UNL1       -0.1669
     22 C         139.0855  140.5466  161.5058 C.3     1  UNL1        0.1233
     23 C         139.6597  140.2097  165.9563 C.ar    1  UNL1        0.1056
     24 C         140.8081  140.6147  165.0804 C.ar    1  UNL1        0.0180
     25 C         140.6167  140.7270  163.5969 C.ar    1  UNL1       -0.0024
     26 C         139.2769  140.4343  162.9893 C.ar    1  UNL1       -0.0118
     27 C         138.1285  140.0293  163.8652 C.ar    1  UNL1       -0.0024
     28 C         138.3199  139.9170  165.3486 C.ar    1  UNL1        0.0180
     29 S         139.8512  140.0974  167.4398 S.O2    1  UNL1        0.0087
     30 O         138.6731  139.1726  167.5218 O.2     1  UNL1       -0.1686
     31 O         141.0293  141.0223  167.3577 O.2     1  UNL1       -0.1686
     32 C         139.2950  140.9001  169.8473 C.3     1  UNL1        0.0276
     33 C         140.0426  139.9852  168.9232 C.3     1  UNL1        0.1560
     34 C         138.3954  141.7462  160.9273 C.3     1  UNL1        0.1409
     35 N         138.7123  143.1170  161.4472 N.ar    1  UNL1       -0.2486
     36 C         138.1630  143.7339  162.6993 C.ar    1  UNL1        0.0967
     37 C         138.7454  145.1098  162.8323 C.ar    1  UNL1        0.0427
     38 C         139.6546  145.3434  161.6623 C.ar    1  UNL1        0.1217
     39 N         139.6342  144.1118  160.8062 N.ar    1  UNL1       -0.1676
@<TRIPOS>BOND
     1    32    33    1
     2    33    29    1
     3    29    30    2
     4    29    31    2
     5    29    23    1
     6    23    24   ar
     7    24    25   ar
     8    25    26   ar
     9    26    22    1
    10    22    34    1
    11    34    35    1
    12    35    36   ar
    13    36    37   ar
    14    37    38   ar
    15    38    39   ar
    16    22     1    1
    17     1     2    2
    18     1     3   am
    19     3     5    1
    20     5     6   ar
    21     6     7   ar
    22     7     8   ar
    23     8    11    1
    24    11    12    1
    25    11    14    1
    26    14    15    1
    27    14    16    1
    28    14    17    1
    29    11    18    1
    30    18    19    1
    31    18    20    1
    32    18    21    1
    33     8     9   ar
    34     9    10   ar
    35    26    27   ar
    36    27    28   ar
    37    28    23   ar
    38    39    35   ar
    39    10     5   ar
    40     3     4    1
    41    12    13    1
@<TRIPOS>MOLECULE
*****
 39 41 0 0 0
SMALL
GASTEIGER

@<TRIPOS>ATOM
      1 C         142.1075  138.1904  157.6240 C.2     1  UNL1        0.2317
      2 O         140.9991  138.4101  158.6105 O.2     1  UNL1       -0.2744
      3 N         143.4715  138.7547  157.8904 N.am    1  UNL1       -0.2836
      4 H         144.1990  138.6105  157.2430 H       1  UNL1        0.1549
      5 C         143.7271  139.5388  159.1434 C.ar    1  UNL1        0.0503
      6 C         143.8725  138.8281  160.4563 C.ar    1  UNL1        0.0144
      7 C         144.1281  139.6121  161.7093 C.ar    1  UNL1       -0.0002
      8 C         144.2383  141.1069  161.6494 C.ar    1  UNL1        0.0182
      9 C         144.0929  141.8176  160.3365 C.ar    1  UNL1       -0.0002
     10 C         143.8373  141.0335  159.0835 C.ar    1  UNL1        0.0144
     11 C         144.4939  141.8908  162.9024 C.3     1  UNL1        0.2827
     12 O         145.9326  142.0501  162.5092 O.3     1  UNL1       -0.3692
     13 H         146.3986  142.5624  163.1884 H       1  UNL1        0.2112
     14 C         144.7495  142.6748  164.1554 C.3     1  UNL1        0.4311
     15 F         145.0051  143.4589  165.4084 F       1  UNL1       -0.1669
     16 F         144.4886  143.9504  163.4105 F       1  UNL1       -0.1669
     17 F         144.9208  141.9838  164.6821 F       1  UNL1       -0.1669
     18 C         143.0552  141.7316  163.2955 C.3     1  UNL1        0.4311
     19 F         141.6163  141.5724  163.6887 F       1  UNL1       -0.1669
     20 F         142.7319  142.3814  162.7878 F       1  UNL1       -0.1669
     21 F         143.0706  140.5983  164.2781 F       1  UNL1       -0.1669
     22 C         141.8518  137.4063  156.3710 C.3     1  UNL1        0.1233
     23 C         142.5318  132.9583  156.3221 C.ar    1  UNL1        0.1056
     24 C         143.3088  133.8254  157.2677 C.ar    1  UNL1        0.0180
     25 C         143.0821  135.3081  157.2841 C.ar    1  UNL1       -0.0024
     26 C         142.0785  135.9237  156.3547 C.ar    1  UNL1       -0.0118
     27 C         141.3015  135.0565  155.4090 C.ar    1  UNL1       -0.0024
     28 C         141.5282  133.5738  155.3927 C.ar    1  UNL1        0.0180
     29 S         142.7585  131.4756  156.3057 S.O2    1  UNL1        0.0087
     30 O         143.9207  131.6430  157.2391 O.2     1  UNL1       -0.1686
     31 O         141.5963  131.3082  155.3723 O.2     1  UNL1       -0.1686
     32 C         144.2257  129.4170  156.9053 C.3     1  UNL1        0.0276
     33 C         142.9852  129.9929  156.2894 C.3     1  UNL1        0.1560
     34 C         141.3695  138.1050  155.1344 C.3     1  UNL1        0.1409
     35 N         139.9639  137.8954  154.6545 N.ar    1  UNL1       -0.2486
     36 C         139.5523  137.5556  153.2527 C.ar    1  UNL1        0.0967
     37 C         138.0571  137.4391  153.2240 C.ar    1  UNL1        0.0427
     38 C         137.5446  137.7068  154.6080 C.ar    1  UNL1        0.1217
     39 N         138.7230  137.9889  155.4922 N.ar    1  UNL1       -0.1676
@<TRIPOS>BOND
     1    32    33    1
     2    33    29    1
     3    29    30    2
     4    29    31    2
     5    29    23    1
     6    23    24   ar
     7    24    25   ar
     8    25    26   ar
     9    26    22    1
    10    22    34    1
    11    34    35    1
    12    35    36   ar
    13    36    37   ar
    14    37    38   ar
    15    38    39   ar
    16    22     1    1
    17     1     2    2
    18     1     3   am
    19     3     5    1
    20     5     6   ar
    21     6     7   ar
    22     7     8   ar
    23     8    11    1
    24    11    12    1
    25    11    14    1
    26    14    15    1
    27    14    16    1
    28    14    17    1
    29    11    18    1
    30    18    19    1
    31    18    20    1
    32    18    21    1
    33     8     9   ar
    34     9    10   ar
    35    26    27   ar
    36    27    28   ar
    37    28    23   ar
    38    39    35   ar
    39    10     5   ar
    40     3     4    1
    41    12    13    1
@<TRIPOS>MOLECULE
*****
 39 41 0 0 0
SMALL
GASTEIGER

@<TRIPOS>ATOM
      1 C         143.5717  141.1136  161.6597 C.2     1  UNL1        0.2317
      2 O         144.6698  140.3685  162.3591 O.2     1  UNL1       -0.2744
      3 N         142.4302  141.6823  162.4494 N.am    1  UNL1       -0.2836
      4 H         141.7094  142.1713  161.9904 H       1  UNL1        0.1549
      5 C         142.3868  141.5058  163.9384 C.ar    1  UNL1        0.0503
      6 C         141.7024  140.3105  164.5324 C.ar    1  UNL1        0.0144
      7 C         141.6590  140.1341  166.0213 C.ar    1  UNL1       -0.0002
      8 C         142.3000  141.1529  166.9163 C.ar    1  UNL1        0.0182
      9 C         142.9845  142.3482  166.3224 C.ar    1  UNL1       -0.0002
     10 C         143.0278  142.5247  164.8333 C.ar    1  UNL1        0.0144
     11 C         142.2567  140.9765  168.4052 C.3     1  UNL1        0.2827
     12 O         143.0445  139.7065  168.2777 O.3     1  UNL1       -0.3692
     13 H         143.1879  139.3251  169.1580 H       1  UNL1        0.2112
     14 C         142.2133  140.8000  169.8942 C.3     1  UNL1        0.4311
     15 F         142.1699  140.6235  171.3832 F       1  UNL1       -0.1669
     16 F         143.6703  141.1462  169.9777 F       1  UNL1       -0.1669
     17 F         141.3562  140.5844  169.9525 F       1  UNL1       -0.1669
     18 C         141.4688  142.2465  168.5328 C.3     1  UNL1        0.4311
     19 F         140.6810  143.5166  168.6604 F       1  UNL1       -0.1669
     20 F         142.1148  142.7393  168.8854 F       1  UNL1       -0.1669
     21 F         140.1148  141.8893  167.9952 F       1  UNL1       -0.1669
     22 C         143.6151  141.2900  160.1708 C.3     1  UNL1        0.1233
     23 C         142.6839  137.8167  157.4654 C.ar    1  UNL1        0.1056
     24 C         142.9943  139.1620  156.8790 C.ar    1  UNL1        0.0180
     25 C         143.3047  140.3197  157.7808 C.ar    1  UNL1       -0.0024
     26 C         143.3047  140.1322  159.2690 C.ar    1  UNL1       -0.0118
     27 C         142.9943  138.7870  159.8554 C.ar    1  UNL1       -0.0024
     28 C         142.6839  137.6292  158.9536 C.ar    1  UNL1        0.0180
     29 S         142.3735  136.6589  156.5636 S.O2    1  UNL1        0.0087
     30 O         141.6430  137.5803  155.6322 O.2     1  UNL1       -0.1686
     31 O         143.1041  135.7376  157.4950 O.2     1  UNL1       -0.1686
     32 C         140.8450  135.5372  154.7873 C.3     1  UNL1        0.0276
     33 C         142.0631  135.5012  155.6618 C.3     1  UNL1        0.1560
     34 C         143.9689  142.6242  159.5837 C.3     1  UNL1        0.1409
     35 N         142.8974  143.6461  159.3440 N.ar    1  UNL1       -0.2486
     36 C         142.4385  144.1454  158.0060 C.ar    1  UNL1        0.0967
     37 C         141.3541  145.1560  158.2354 C.ar    1  UNL1        0.0427
     38 C         141.1427  145.2814  159.7151 C.ar    1  UNL1        0.1217
     39 N         142.0965  144.3482  160.4004 N.ar    1  UNL1       -0.1676
@<TRIPOS>BOND
     1    32    33    1
     2    33    29    1
     3    29    30    2
     4    29    31    2
     5    29    23    1
     6    23    24   ar
     7    24    25   ar
     8    25    26   ar
     9    26    22    1
    10    22    34    1
    11    34    35    1
    12    35    36   ar
    13    36    37   ar
    14    37    38   ar
    15    38    39   ar
    16    22     1    1
    17     1     2    2
    18     1     3   am
    19     3     5    1
    20     5     6   ar
    21     6     7   ar
    22     7     8   ar
    23     8    11    1
    24    11    12    1
    25    11    14    1
    26    14    15    1
    27    14    16    1
    28    14    17    1
    29    11    18    1
    30    18    19    1
    31    18    20    1
    32    18    21    1
    33     8     9   ar
    34     9    10   ar
    35    26    27   ar
    36    27    28   ar
    37    28    23   ar
    38    39    35   ar
    39    10     5   ar
    40     3     4    1
    41    12    13    1
@<TRIPOS>MOLECULE
*****
 39 41 0 0 0
SMALL
GASTEIGER

@<TRIPOS>ATOM
      1 C         141.2061  143.6214  162.5055 C.2     1  UNL1        0.2317
      2 O         140.8823  144.7718  163.4122 O.2     1  UNL1       -0.2744
      3 N         141.4198  142.2518  163.0788 N.am    1  UNL1       -0.2836
      4 H         141.6323  141.4968  162.4838 H       1  UNL1        0.1549
      5 C         141.3098  142.0326  164.5586 C.ar    1  UNL1        0.0503
      6 C         142.4323  142.4463  165.4636 C.ar    1  UNL1        0.0144
      7 C         142.3224  142.2271  166.9433 C.ar    1  UNL1       -0.0002
      8 C         141.0898  141.5943  167.5183 C.ar    1  UNL1        0.0182
      9 C         139.9674  141.1806  166.6134 C.ar    1  UNL1       -0.0002
     10 C         140.0774  141.3998  165.1335 C.ar    1  UNL1        0.0144
     11 C         140.9799  141.3751  168.9981 C.3     1  UNL1        0.2827
     12 O         141.2904  139.9203  168.8057 O.3     1  UNL1       -0.3692
     13 H         141.2903  139.4731  169.6664 H       1  UNL1        0.2112
     14 C         140.8699  141.1559  170.4779 C.3     1  UNL1        0.4311
     15 F         140.7600  140.9367  171.9577 F       1  UNL1       -0.1669
     16 F         142.3402  140.8663  170.5442 F       1  UNL1       -0.1669
     17 F         140.0004  141.3099  170.5455 F       1  UNL1       -0.1669
     18 C         140.6694  142.8299  169.1905 C.3     1  UNL1        0.4311
     19 F         140.3588  144.2848  169.3829 F       1  UNL1       -0.1669
     20 F         139.8438  142.8073  168.8703 F       1  UNL1       -0.1669
     21 F         141.9238  143.3927  169.7900 F       1  UNL1       -0.1669
     22 C         141.3161  143.8406  161.0258 C.3     1  UNL1        0.1233
     23 C         142.4127  140.4168  158.3193 C.ar    1  UNL1        0.1056
     24 C         143.4890  141.2634  158.9314 C.ar    1  UNL1        0.0180
     25 C         143.1235  142.4047  159.8336 C.ar    1  UNL1       -0.0024
     26 C         141.6816  142.6994  160.1236 C.ar    1  UNL1       -0.0118
     27 C         140.6053  141.8528  159.5115 C.ar    1  UNL1       -0.0024
     28 C         140.9708  140.7115  158.6093 C.ar    1  UNL1        0.0180
     29 S         142.7782  139.2756  157.4171 S.O2    1  UNL1        0.0087
     30 O         142.2343  140.0311  156.2410 O.2     1  UNL1       -0.1686
     31 O         143.3222  138.5200  158.5933 O.2     1  UNL1       -0.1686
     32 C         142.8887  136.7220  156.9512 C.3     1  UNL1        0.0276
     33 C         143.1438  138.1343  156.5150 C.3     1  UNL1        0.1560
     34 C         141.0605  145.2011  160.4481 C.3     1  UNL1        0.1409
     35 N         141.1351  145.4123  158.9650 N.ar    1  UNL1       -0.2486
     36 C         139.9918  145.3027  158.0002 C.ar    1  UNL1        0.0967
     37 C         140.5161  145.5928  156.6251 C.ar    1  UNL1        0.0427
     38 C         141.9835  145.8818  156.7400 C.ar    1  UNL1        0.1217
     39 N         142.3661  145.7703  158.1861 N.ar    1  UNL1       -0.1676
@<TRIPOS>BOND
     1    32    33    1
     2    33    29    1
     3    29    30    2
     4    29    31    2
     5    29    23    1
     6    23    24   ar
     7    24    25   ar
     8    25    26   ar
     9    26    22    1
    10    22    34    1
    11    34    35    1
    12    35    36   ar
    13    36    37   ar
    14    37    38   ar
    15    38    39   ar
    16    22     1    1
    17     1     2    2
    18     1     3   am
    19     3     5    1
    20     5     6   ar
    21     6     7   ar
    22     7     8   ar
    23     8    11    1
    24    11    12    1
    25    11    14    1
    26    14    15    1
    27    14    16    1
    28    14    17    1
    29    11    18    1
    30    18    19    1
    31    18    20    1
    32    18    21    1
    33     8     9   ar
    34     9    10   ar
    35    26    27   ar
    36    27    28   ar
    37    28    23   ar
    38    39    35   ar
    39    10     5   ar
    40     3     4    1
    41    12    13    1
