@<TRIPOS>MOLECULE
*****
 28 31 0 0 0
SMALL
GASTEIGER

@<TRIPOS>ATOM
      1 C         138.0991  138.2523  166.4417 C.3     1  UNL1        0.0298
      2 C         139.3069  138.8444  165.7777 C.3     1  UNL1        0.1343
      3 C         139.6138  138.5140  164.3470 C.ar    1  UNL1        0.1615
      4 N         138.9145  137.6433  163.3457 N.ar    1  UNL1       -0.1316
      5 N         139.6900  137.6971  162.0629 N.ar    1  UNL1       -0.1268
      6 C         140.8687  138.6012  162.2714 C.ar    1  UNL1        0.1917
      7 N         140.8216  139.1061  163.6831 N.ar    1  UNL1       -0.2940
      8 C         141.7224  140.0285  164.4498 C.3     1  UNL1        0.1302
      9 C         141.4154  140.3588  165.8804 C.3     1  UNL1        0.1186
     10 N         140.2078  139.7668  166.5443 N.am    1  UNL1       -0.2688
     11 C         139.9008  140.0971  167.9750 C.2     1  UNL1        0.2494
     12 O         138.6931  139.5050  168.6390 O.2     1  UNL1       -0.2699
     13 C         140.8016  141.0194  168.7417 C.ar    1  UNL1        0.0537
     14 C         142.1235  140.5254  169.2502 C.ar    1  UNL1        0.0068
     15 C         143.0243  141.4479  170.0169 C.ar    1  UNL1        0.0298
     16 C         142.6032  142.8642  170.2750 C.ar    1  UNL1        0.1401
     17 F         143.5040  143.7866  171.0417 F       1  UNL1       -0.2042
     18 C         141.2813  143.3582  169.7664 C.ar    1  UNL1        0.0298
     19 C         140.3805  142.4358  168.9998 C.ar    1  UNL1        0.0068
     20 C         141.9113  138.9407  161.2479 C.ar    1  UNL1        0.1655
     21 N         142.2841  140.3207  160.7932 N.ar    1  UNL1       -0.2116
     22 C         143.3674  140.1927  159.7637 C.ar    1  UNL1        0.2429
     23 N         143.6643  138.7336  159.5821 N.ar    1  UNL1       -0.1848
     24 S         142.7644  137.9599  160.4994 S.2     1  UNL1        0.0372
     25 C         144.0365  141.3250  159.0424 C.3     1  UNL1        0.4529
     26 F         144.7055  142.4574  158.3212 F       1  UNL1       -0.1631
     27 F         143.6562  142.2577  160.1539 F       1  UNL1       -0.1631
     28 F         144.4168  140.3923  157.9309 F       1  UNL1       -0.1631
@<TRIPOS>BOND
     1     2     1    1
     2     2     3    1
     3     3     4   ar
     4     4     5   ar
     5     5     6   ar
     6     6    20    1
     7    20    21   ar
     8    21    22   ar
     9    22    25    1
    10    25    26    1
    11    25    27    1
    12    25    28    1
    13    22    23   ar
    14    23    24   ar
    15     6     7   ar
    16     7     8    1
    17     8     9    1
    18     9    10    1
    19    10    11   am
    20    11    12    2
    21    11    13    1
    22    13    14   ar
    23    14    15   ar
    24    15    16   ar
    25    16    17    1
    26    16    18   ar
    27    18    19   ar
    28    10     2    1
    29    19    13   ar
    30     7     3   ar
    31    24    20   ar
@<TRIPOS>MOLECULE
*****
 28 31 0 0 0
SMALL
GASTEIGER

@<TRIPOS>ATOM
      1 C         138.0355  139.3488  165.8988 C.3     1  UNL1        0.0298
      2 C         138.7514  140.5590  165.3764 C.3     1  UNL1        0.1343
      3 C         138.5156  141.0206  163.9688 C.ar    1  UNL1        0.1615
      4 N         137.6422  140.4890  162.8712 N.ar    1  UNL1       -0.1316
      5 N         137.8185  141.3706  161.6706 N.ar    1  UNL1       -0.1268
      6 C         138.8007  142.4471  162.0260 C.ar    1  UNL1        0.1917
      7 N         139.2316  142.2308  163.4464 N.ar    1  UNL1       -0.2940
      8 C         140.1834  142.9794  164.3317 C.3     1  UNL1        0.1302
      9 C         140.4192  142.5178  165.7392 C.3     1  UNL1        0.1186
     10 N         139.7033  141.3077  166.2616 N.am    1  UNL1       -0.2688
     11 C         139.9391  140.8461  167.6693 C.2     1  UNL1        0.2494
     12 O         139.2231  139.6359  168.1916 O.2     1  UNL1       -0.2699
     13 C         140.8909  141.5947  168.5545 C.ar    1  UNL1        0.0537
     14 C         142.3144  141.1388  168.6803 C.ar    1  UNL1        0.0068
     15 C         143.2662  141.8875  169.5656 C.ar    1  UNL1        0.0298
     16 C         142.7945  143.0919  170.3250 C.ar    1  UNL1        0.1401
     17 F         143.7462  143.8406  171.2102 F       1  UNL1       -0.2042
     18 C         141.3710  143.5478  170.1992 C.ar    1  UNL1        0.0298
     19 C         140.4192  142.7992  169.3139 C.ar    1  UNL1        0.0068
     20 C         139.2698  143.5468  161.1201 C.ar    1  UNL1        0.1655
     21 N         139.4890  143.4369  159.6403 N.ar    1  UNL1       -0.2116
     22 C         139.9567  144.7717  159.1407 C.ar    1  UNL1        0.2429
     23 N         140.0264  145.7066  160.3116 N.ar    1  UNL1       -0.1848
     24 S         139.6019  144.9495  161.5350 S.2     1  UNL1        0.0372
     25 C         140.2951  145.1119  157.7195 C.3     1  UNL1        0.4529
     26 F         140.6336  145.4521  156.2983 F       1  UNL1       -0.1631
     27 F         139.1708  144.2406  157.2432 F       1  UNL1       -0.1631
     28 F         141.4194  145.9832  158.1958 F       1  UNL1       -0.1631
@<TRIPOS>BOND
     1     2     1    1
     2     2     3    1
     3     3     4   ar
     4     4     5   ar
     5     5     6   ar
     6     6    20    1
     7    20    21   ar
     8    21    22   ar
     9    22    25    1
    10    25    26    1
    11    25    27    1
    12    25    28    1
    13    22    23   ar
    14    23    24   ar
    15     6     7   ar
    16     7     8    1
    17     8     9    1
    18     9    10    1
    19    10    11   am
    20    11    12    2
    21    11    13    1
    22    13    14   ar
    23    14    15   ar
    24    15    16   ar
    25    16    17    1
    26    16    18   ar
    27    18    19   ar
    28    10     2    1
    29    19    13   ar
    30     7     3   ar
    31    24    20   ar
@<TRIPOS>MOLECULE
*****
 28 31 0 0 0
SMALL
GASTEIGER

@<TRIPOS>ATOM
      1 C         144.0567  138.2668  166.1948 C.3     1  UNL1        0.0298
      2 C         143.4415  139.5028  165.6083 C.3     1  UNL1        0.1343
      3 C         143.6661  139.8396  164.1640 C.ar    1  UNL1        0.1615
      4 N         144.4408  139.1489  163.0810 N.ar    1  UNL1       -0.1316
      5 N         144.3043  139.9580  161.8254 N.ar    1  UNL1       -0.1268
      6 C         143.4453  141.1488  162.1322 C.ar    1  UNL1        0.1917
      7 N         143.0509  141.0756  163.5776 N.ar    1  UNL1       -0.2940
      8 C         142.2110  141.9748  164.4355 C.3     1  UNL1        0.1302
      9 C         141.9864  141.6380  165.8798 C.3     1  UNL1        0.1186
     10 N         142.6016  140.4021  166.4662 N.am    1  UNL1       -0.2688
     11 C         142.3769  140.0653  167.9106 C.2     1  UNL1        0.2494
     12 O         142.9921  138.8293  168.4970 O.2     1  UNL1       -0.2699
     13 C         141.5370  140.9644  168.7685 C.ar    1  UNL1        0.0537
     14 C         140.1650  140.5302  169.1917 C.ar    1  UNL1        0.0068
     15 C         139.3251  141.4295  170.0497 C.ar    1  UNL1        0.0298
     16 C         139.8572  142.7628  170.4844 C.ar    1  UNL1        0.1401
     17 F         139.0174  143.6620  171.3423 F       1  UNL1       -0.2042
     18 C         141.2293  143.1970  170.0612 C.ar    1  UNL1        0.0298
     19 C         142.0692  142.2978  169.2033 C.ar    1  UNL1        0.0068
     20 C         143.0502  142.2239  161.1637 C.ar    1  UNL1        0.1655
     21 N         141.8351  143.0977  161.2640 N.ar    1  UNL1       -0.2116
     22 C         141.8347  144.0278  160.0871 C.ar    1  UNL1        0.2429
     23 N         143.0495  143.7288  159.2596 N.ar    1  UNL1       -0.1848
     24 S         143.8007  142.6140  159.9250 S.2     1  UNL1        0.0372
     25 C         140.8009  145.0733  159.7900 C.3     1  UNL1        0.4529
     26 F         139.7672  146.1188  159.4929 F       1  UNL1       -0.1631
     27 F         139.9014  144.4804  160.8337 F       1  UNL1       -0.1631
     28 F         141.7005  145.6662  158.7463 F       1  UNL1       -0.1631
@<TRIPOS>BOND
     1     2     1    1
     2     2     3    1
     3     3     4   ar
     4     4     5   ar
     5     5     6   ar
     6     6    20    1
     7    20    21   ar
     8    21    22   ar
     9    22    25    1
    10    25    26    1
    11    25    27    1
    12    25    28    1
    13    22    23   ar
    14    23    24   ar
    15     6     7   ar
    16     7     8    1
    17     8     9    1
    18     9    10    1
    19    10    11   am
    20    11    12    2
    21    11    13    1
    22    13    14   ar
    23    14    15   ar
    24    15    16   ar
    25    16    17    1
    26    16    18   ar
    27    18    19   ar
    28    10     2    1
    29    19    13   ar
    30     7     3   ar
    31    24    20   ar
@<TRIPOS>MOLECULE
*****
 28 31 0 0 0
SMALL
GASTEIGER

@<TRIPOS>ATOM
      1 C         144.7570  140.1369  164.1575 C.3     1  UNL1        0.0298
      2 C         143.5294  140.7745  163.5774 C.3     1  UNL1        0.1343
      3 C         143.6581  141.7867  162.4779 C.ar    1  UNL1        0.1615
      4 N         144.8530  142.3511  161.7681 N.ar    1  UNL1       -0.1316
      5 N         144.3638  143.3374  160.7495 N.ar    1  UNL1       -0.1268
      6 C         142.8666  143.3827  160.8296 C.ar    1  UNL1        0.1917
      7 N         142.4305  142.4242  161.8978 N.ar    1  UNL1       -0.2940
      8 C         141.0741  142.0496  162.4173 C.3     1  UNL1        0.1302
      9 C         140.9453  141.0375  163.5168 C.3     1  UNL1        0.1186
     10 N         142.1729  140.4000  164.0968 N.am    1  UNL1       -0.2688
     11 C         142.0441  139.3878  165.1964 C.2     1  UNL1        0.2494
     12 O         143.2717  138.7502  165.7765 O.2     1  UNL1       -0.2699
     13 C         140.6877  139.0132  165.7159 C.ar    1  UNL1        0.0537
     14 C         140.0965  139.7587  166.8755 C.ar    1  UNL1        0.0068
     15 C         138.7401  139.3841  167.3950 C.ar    1  UNL1        0.0298
     16 C         137.9749  138.2640  166.7549 C.ar    1  UNL1        0.1401
     17 F         136.6185  137.8893  167.2743 F       1  UNL1       -0.2042
     18 C         138.5661  137.5185  165.5952 C.ar    1  UNL1        0.0298
     19 C         139.9225  137.8930  165.0757 C.ar    1  UNL1        0.0068
     20 C         141.9641  144.2364  159.9890 C.ar    1  UNL1        0.1655
     21 N         142.2471  144.7121  158.5949 N.ar    1  UNL1       -0.2116
     22 C         141.0780  145.5341  158.1393 C.ar    1  UNL1        0.2429
     23 N         140.0725  145.5665  159.2519 N.ar    1  UNL1       -0.1848
     24 S         140.6201  144.7645  160.3951 S.2     1  UNL1        0.0372
     25 C         140.9388  146.2057  156.8053 C.3     1  UNL1        0.4529
     26 F         140.7997  146.8774  155.4713 F       1  UNL1       -0.1631
     27 F         142.1548  145.4787  156.3125 F       1  UNL1       -0.1631
     28 F         139.7229  146.9327  157.2982 F       1  UNL1       -0.1631
@<TRIPOS>BOND
     1     2     1    1
     2     2     3    1
     3     3     4   ar
     4     4     5   ar
     5     5     6   ar
     6     6    20    1
     7    20    21   ar
     8    21    22   ar
     9    22    25    1
    10    25    26    1
    11    25    27    1
    12    25    28    1
    13    22    23   ar
    14    23    24   ar
    15     6     7   ar
    16     7     8    1
    17     8     9    1
    18     9    10    1
    19    10    11   am
    20    11    12    2
    21    11    13    1
    22    13    14   ar
    23    14    15   ar
    24    15    16   ar
    25    16    17    1
    26    16    18   ar
    27    18    19   ar
    28    10     2    1
    29    19    13   ar
    30     7     3   ar
    31    24    20   ar
@<TRIPOS>MOLECULE
*****
 28 31 0 0 0
SMALL
GASTEIGER

@<TRIPOS>ATOM
      1 C         138.0418  138.7187  166.2703 C.3     1  UNL1        0.0298
      2 C         138.9626  139.6793  165.5777 C.3     1  UNL1        0.1343
      3 C         138.9589  139.7748  164.0808 C.ar    1  UNL1        0.1615
      4 N         138.1647  139.0554  163.0312 N.ar    1  UNL1       -0.1316
      5 N         138.5947  139.5714  161.6899 N.ar    1  UNL1       -0.1268
      6 C         139.6546  140.6096  161.9106 C.ar    1  UNL1        0.1917
      7 N         139.8797  140.7353  163.3883 N.ar    1  UNL1       -0.2940
      8 C         140.8041  141.6004  164.1928 C.3     1  UNL1        0.1302
      9 C         140.8078  141.5048  165.6897 C.3     1  UNL1        0.1186
     10 N         139.8871  140.5443  166.3822 N.am    1  UNL1       -0.2688
     11 C         139.8908  140.4488  167.8792 C.2     1  UNL1        0.2494
     12 O         138.9700  139.4883  168.5717 O.2     1  UNL1       -0.2699
     13 C         140.8152  141.3138  168.6836 C.ar    1  UNL1        0.0537
     14 C         140.3406  142.6386  169.2030 C.ar    1  UNL1        0.0068
     15 C         141.2651  143.5036  170.0075 C.ar    1  UNL1        0.0298
     16 C         142.6641  143.0438  170.2925 C.ar    1  UNL1        0.1401
     17 F         143.5887  143.9088  171.0970 F       1  UNL1       -0.2042
     18 C         143.1388  141.7190  169.7731 C.ar    1  UNL1        0.0298
     19 C         142.2143  140.8540  168.9687 C.ar    1  UNL1        0.0068
     20 C         140.3647  141.3858  160.8414 C.ar    1  UNL1        0.1655
     21 N         140.3739  142.8786  160.6943 N.ar    1  UNL1       -0.2116
     22 C         141.2052  143.2208  159.4935 C.ar    1  UNL1        0.2429
     23 N         141.7097  141.9397  158.8985 N.ar    1  UNL1       -0.1848
     24 S         141.1902  140.8056  159.7316 S.2     1  UNL1        0.0372
     25 C         141.4831  144.6019  158.9782 C.3     1  UNL1        0.4529
     26 F         141.7610  145.9829  158.4629 F       1  UNL1       -0.1631
     27 F         140.1058  145.0320  159.3881 F       1  UNL1       -0.1631
     28 F         142.8604  144.1717  158.5683 F       1  UNL1       -0.1631
@<TRIPOS>BOND
     1     2     1    1
     2     2     3    1
     3     3     4   ar
     4     4     5   ar
     5     5     6   ar
     6     6    20    1
     7    20    21   ar
     8    21    22   ar
     9    22    25    1
    10    25    26    1
    11    25    27    1
    12    25    28    1
    13    22    23   ar
    14    23    24   ar
    15     6     7   ar
    16     7     8    1
    17     8     9    1
    18     9    10    1
    19    10    11   am
    20    11    12    2
    21    11    13    1
    22    13    14   ar
    23    14    15   ar
    24    15    16   ar
    25    16    17    1
    26    16    18   ar
    27    18    19   ar
    28    10     2    1
    29    19    13   ar
    30     7     3   ar
    31    24    20   ar
@<TRIPOS>MOLECULE
*****
 28 31 0 0 0
SMALL
GASTEIGER

@<TRIPOS>ATOM
      1 C         143.5123  138.1376  165.9860 C.3     1  UNL1        0.0298
      2 C         142.3209  138.8783  165.4549 C.3     1  UNL1        0.1343
      3 C         141.8970  138.6924  164.0282 C.ar    1  UNL1        0.1615
      4 N         142.4537  137.8527  162.9170 N.ar    1  UNL1       -0.1316
      5 N         141.6064  138.0744  161.6992 N.ar    1  UNL1       -0.1268
      6 C         140.5260  139.0512  162.0578 C.ar    1  UNL1        0.1917
      7 N         140.7056  139.4332  163.4972 N.ar    1  UNL1       -0.2940
      8 C         139.9382  140.3598  164.3930 C.3     1  UNL1        0.1302
      9 C         140.3621  140.5457  165.8197 C.3     1  UNL1        0.1186
     10 N         141.5534  139.8050  166.3507 N.am    1  UNL1       -0.2688
     11 C         141.9774  139.9909  167.7776 C.2     1  UNL1        0.2494
     12 O         143.1688  139.2501  168.3085 O.2     1  UNL1       -0.2699
     13 C         141.2100  140.9175  168.6734 C.ar    1  UNL1        0.0537
     14 C         141.6356  142.3490  168.8130 C.ar    1  UNL1        0.0068
     15 C         140.8681  143.2757  169.7088 C.ar    1  UNL1        0.0298
     16 C         139.6752  142.7707  170.4649 C.ar    1  UNL1        0.1401
     17 F         138.9077  143.6972  171.3608 F       1  UNL1       -0.2042
     18 C         139.2496  141.3391  170.3253 C.ar    1  UNL1        0.0298
     19 C         140.0170  140.4125  169.4295 C.ar    1  UNL1        0.0068
     20 C         139.4543  139.5572  161.1384 C.ar    1  UNL1        0.1655
     21 N         139.6109  140.6419  160.1142 N.ar    1  UNL1       -0.2116
     22 C         138.2911  140.8224  159.4246 C.ar    1  UNL1        0.2429
     23 N         137.3188  139.8492  160.0225 N.ar    1  UNL1       -0.1848
     24 S         138.0377  139.0673  161.0817 S.2     1  UNL1        0.0372
     25 C         137.9956  141.8037  158.3293 C.3     1  UNL1        0.4529
     26 F         137.7001  142.7851  157.2341 F       1  UNL1       -0.1631
     27 F         138.7504  142.8637  159.0754 F       1  UNL1       -0.1631
     28 F         137.2408  140.7437  157.5833 F       1  UNL1       -0.1631
@<TRIPOS>BOND
     1     2     1    1
     2     2     3    1
     3     3     4   ar
     4     4     5   ar
     5     5     6   ar
     6     6    20    1
     7    20    21   ar
     8    21    22   ar
     9    22    25    1
    10    25    26    1
    11    25    27    1
    12    25    28    1
    13    22    23   ar
    14    23    24   ar
    15     6     7   ar
    16     7     8    1
    17     8     9    1
    18     9    10    1
    19    10    11   am
    20    11    12    2
    21    11    13    1
    22    13    14   ar
    23    14    15   ar
    24    15    16   ar
    25    16    17    1
    26    16    18   ar
    27    18    19   ar
    28    10     2    1
    29    19    13   ar
    30     7     3   ar
    31    24    20   ar
@<TRIPOS>MOLECULE
*****
 28 31 0 0 0
SMALL
GASTEIGER

@<TRIPOS>ATOM
      1 C         138.1324  138.8600  166.0440 C.3     1  UNL1        0.0298
      2 C         139.1299  139.7754  165.3982 C.3     1  UNL1        0.1343
      3 C         139.2126  139.8594  163.9029 C.ar    1  UNL1        0.1615
      4 N         138.4475  139.1660  162.8148 N.ar    1  UNL1       -0.1316
      5 N         138.9721  139.6530  161.4966 N.ar    1  UNL1       -0.1268
      6 C         140.0615  140.6472  161.7700 C.ar    1  UNL1        0.1917
      7 N         140.2101  140.7748  163.2571 N.ar    1  UNL1       -0.2940
      8 C         141.1249  141.6063  164.1067 C.3     1  UNL1        0.1302
      9 C         141.0422  141.5223  165.6021 C.3     1  UNL1        0.1186
     10 N         140.0447  140.6070  166.2478 N.am    1  UNL1       -0.2688
     11 C         139.9620  140.5230  167.7432 C.2     1  UNL1        0.2494
     12 O         138.9645  139.6076  168.3890 O.2     1  UNL1       -0.2699
     13 C         140.8768  141.3545  168.5928 C.ar    1  UNL1        0.0537
     14 C         142.2694  140.8786  168.8832 C.ar    1  UNL1        0.0068
     15 C         143.1841  141.7102  169.7329 C.ar    1  UNL1        0.0298
     16 C         142.7063  143.0174  170.2921 C.ar    1  UNL1        0.1401
     17 F         143.6210  143.8489  171.1417 F       1  UNL1       -0.2042
     18 C         141.3137  143.4932  170.0016 C.ar    1  UNL1        0.0298
     19 C         140.3989  142.6618  169.1520 C.ar    1  UNL1        0.0068
     20 C         140.8617  141.3845  160.7374 C.ar    1  UNL1        0.1655
     21 N         142.3566  141.3825  160.6136 N.ar    1  UNL1       -0.2116
     22 C         142.7262  142.2499  159.4471 C.ar    1  UNL1        0.2429
     23 N         141.4598  142.7880  158.8498 N.ar    1  UNL1       -0.1848
     24 S         140.3075  142.2532  159.6473 S.2     1  UNL1        0.0372
     25 C         144.1180  142.5301  158.9627 C.3     1  UNL1        0.4529
     26 F         145.5097  142.8102  158.4784 F       1  UNL1       -0.1631
     27 F         143.6780  142.2758  157.5514 F       1  UNL1       -0.1631
     28 F         144.5579  142.7844  160.3740 F       1  UNL1       -0.1631
@<TRIPOS>BOND
     1     2     1    1
     2     2     3    1
     3     3     4   ar
     4     4     5   ar
     5     5     6   ar
     6     6    20    1
     7    20    21   ar
     8    21    22   ar
     9    22    25    1
    10    25    26    1
    11    25    27    1
    12    25    28    1
    13    22    23   ar
    14    23    24   ar
    15     6     7   ar
    16     7     8    1
    17     8     9    1
    18     9    10    1
    19    10    11   am
    20    11    12    2
    21    11    13    1
    22    13    14   ar
    23    14    15   ar
    24    15    16   ar
    25    16    17    1
    26    16    18   ar
    27    18    19   ar
    28    10     2    1
    29    19    13   ar
    30     7     3   ar
    31    24    20   ar
@<TRIPOS>MOLECULE
*****
 28 31 0 0 0
SMALL
GASTEIGER

@<TRIPOS>ATOM
      1 C         139.6920  146.0378  161.8497 C.3     1  UNL1        0.0298
      2 C         140.5205  144.8070  161.6289 C.3     1  UNL1        0.1343
      3 C         141.3331  144.6645  160.3762 C.ar    1  UNL1        0.1615
      4 N         141.5145  145.5643  159.1898 N.ar    1  UNL1       -0.1316
      5 N         142.4551  144.8896  158.2359 N.ar    1  UNL1       -0.1268
      6 C         142.8550  143.5728  158.8327 C.ar    1  UNL1        0.1917
      7 N         142.1615  143.4337  160.1555 N.ar    1  UNL1       -0.2940
      8 C         142.1774  142.3453  161.1875 C.3     1  UNL1        0.1302
      9 C         141.3648  142.4877  162.4403 C.3     1  UNL1        0.1186
     10 N         140.5364  143.7185  162.6610 N.am    1  UNL1       -0.2688
     11 C         139.7238  143.8609  163.9138 C.2     1  UNL1        0.2494
     12 O         138.8953  145.0918  164.1345 O.2     1  UNL1       -0.2699
     13 C         139.7396  142.7725  164.9458 C.ar    1  UNL1        0.0537
     14 C         140.6617  142.8704  166.1249 C.ar    1  UNL1        0.0068
     15 C         140.6775  141.7820  167.1570 C.ar    1  UNL1        0.0298
     16 C         139.7714  140.5958  167.0099 C.ar    1  UNL1        0.1401
     17 F         139.7871  139.5073  168.0419 F       1  UNL1       -0.2042
     18 C         138.8493  140.4979  165.8308 C.ar    1  UNL1        0.0298
     19 C         138.8334  141.5863  164.7987 C.ar    1  UNL1        0.0068
     20 C         143.7850  142.5710  158.2151 C.ar    1  UNL1        0.1655
     21 N         144.9488  142.8822  157.3214 N.ar    1  UNL1       -0.2116
     22 C         145.5976  141.5856  156.9368 C.ar    1  UNL1        0.2429
     23 N         144.8348  140.4730  157.5928 N.ar    1  UNL1       -0.1848
     24 S         143.7146  141.0821  158.3828 S.2     1  UNL1        0.0372
     25 C         146.7984  141.4291  156.0515 C.3     1  UNL1        0.4529
     26 F         147.9992  141.2726  155.1663 F       1  UNL1       -0.1631
     27 F         147.4522  142.5949  156.7323 F       1  UNL1       -0.1631
     28 F         146.1446  140.2633  155.3708 F       1  UNL1       -0.1631
@<TRIPOS>BOND
     1     2     1    1
     2     2     3    1
     3     3     4   ar
     4     4     5   ar
     5     5     6   ar
     6     6    20    1
     7    20    21   ar
     8    21    22   ar
     9    22    25    1
    10    25    26    1
    11    25    27    1
    12    25    28    1
    13    22    23   ar
    14    23    24   ar
    15     6     7   ar
    16     7     8    1
    17     8     9    1
    18     9    10    1
    19    10    11   am
    20    11    12    2
    21    11    13    1
    22    13    14   ar
    23    14    15   ar
    24    15    16   ar
    25    16    17    1
    26    16    18   ar
    27    18    19   ar
    28    10     2    1
    29    19    13   ar
    30     7     3   ar
    31    24    20   ar
@<TRIPOS>MOLECULE
*****
 28 31 0 0 0
SMALL
GASTEIGER

@<TRIPOS>ATOM
      1 C         138.4398  137.7795  162.8997 C.3     1  UNL1        0.0298
      2 C         139.2454  138.7441  163.7186 C.3     1  UNL1        0.1343
      3 C         138.9804  138.8841  165.1883 C.ar    1  UNL1        0.1615
      4 N         137.9981  138.2101  166.0997 N.ar    1  UNL1       -0.1316
      5 N         138.1966  138.7581  167.4818 N.ar    1  UNL1       -0.1268
      6 C         139.3016  139.7709  167.4246 C.ar    1  UNL1        0.1917
      7 N         139.7861  139.8488  166.0071 N.ar    1  UNL1       -0.2940
      8 C         140.8566  140.6735  165.3561 C.3     1  UNL1        0.1302
      9 C         141.1216  140.5335  163.8864 C.3     1  UNL1        0.1186
     10 N         140.3161  139.5689  163.0676 N.am    1  UNL1       -0.2688
     11 C         140.5811  139.4289  161.5978 C.2     1  UNL1        0.2494
     12 O         139.7755  138.4642  160.7790 O.2     1  UNL1       -0.2699
     13 C         141.6517  140.2535  160.9469 C.ar    1  UNL1        0.0537
     14 C         141.2961  141.5419  160.2661 C.ar    1  UNL1        0.0068
     15 C         142.3668  142.3666  159.6151 C.ar    1  UNL1        0.0298
     16 C         143.7929  141.9029  159.6449 C.ar    1  UNL1        0.1401
     17 F         144.8635  142.7274  158.9940 F       1  UNL1       -0.2042
     18 C         144.1485  140.6143  160.3258 C.ar    1  UNL1        0.0298
     19 C         143.0779  139.7897  160.9767 C.ar    1  UNL1        0.0068
     20 C         139.8295  140.5662  168.5817 C.ar    1  UNL1        0.1655
     21 N         141.0614  141.4220  168.5745 N.ar    1  UNL1       -0.2116
     22 C         141.2113  142.0300  169.9376 C.ar    1  UNL1        0.2429
     23 N         140.0721  141.5500  170.7871 N.ar    1  UNL1       -0.1848
     24 S         139.2181  140.6453  169.9492 S.2     1  UNL1        0.0372
     25 C         142.3080  142.9555  170.3743 C.3     1  UNL1        0.4529
     26 F         143.4046  143.8811  170.8111 F       1  UNL1       -0.1631
     27 F         143.2387  141.7874  170.5126 F       1  UNL1       -0.1631
     28 F         141.3772  144.1237  170.2360 F       1  UNL1       -0.1631
@<TRIPOS>BOND
     1     2     1    1
     2     2     3    1
     3     3     4   ar
     4     4     5   ar
     5     5     6   ar
     6     6    20    1
     7    20    21   ar
     8    21    22   ar
     9    22    25    1
    10    25    26    1
    11    25    27    1
    12    25    28    1
    13    22    23   ar
    14    23    24   ar
    15     6     7   ar
    16     7     8    1
    17     8     9    1
    18     9    10    1
    19    10    11   am
    20    11    12    2
    21    11    13    1
    22    13    14   ar
    23    14    15   ar
    24    15    16   ar
    25    16    17    1
    26    16    18   ar
    27    18    19   ar
    28    10     2    1
    29    19    13   ar
    30     7     3   ar
    31    24    20   ar
