@<TRIPOS>MOLECULE
*****
 34 38 0 0 0
SMALL
GASTEIGER

@<TRIPOS>ATOM
      1 C         140.6911  139.0645  160.9472 C.3     1  UNL1        0.0747
      2 C         139.6283  138.7210  159.9461 C.3     1  UNL1        0.0369
      3 C         140.0123  138.3146  158.5542 C.3     1  UNL1        0.0741
      4 N         141.4592  138.2517  158.1634 N.3     1  UNL1       -0.2688
      5 C         142.5220  138.5952  159.1646 C.3     1  UNL1        0.0741
      6 C         142.1380  139.0016  160.5566 C.3     1  UNL1        0.0369
      7 O         140.6407  137.0239  163.1457 O.2     1  UNL1       -0.2668
      8 C         140.2820  138.4506  163.4383 C.2     1  UNL1        0.2806
      9 N         140.3072  139.4709  162.3391 N.am    1  UNL1       -0.2999
     10 H         140.0717  140.4073  162.5312 H       1  UNL1        0.1498
     11 C         139.8980  138.8571  164.8303 C.ar    1  UNL1        0.2014
     12 C         138.6700  138.2787  165.4686 C.ar    1  UNL1        0.0843
     13 C         138.2860  138.6852  166.8605 C.ar    1  UNL1        0.2018
     14 O         137.0580  138.1069  167.4989 O.2     1  UNL1       -0.2864
     15 C         139.1301  139.6701  167.6140 C.ar    1  UNL1        0.0737
     16 C         138.7461  140.0765  169.0059 C.ar    1  UNL1        0.0085
     17 C         139.5901  141.0614  169.7594 C.ar    1  UNL1        0.0299
     18 C         140.8181  141.6397  169.1210 C.ar    1  UNL1        0.1432
     19 F         141.6621  142.6245  169.8744 F       1  UNL1       -0.2041
     20 C         141.2021  141.2332  167.7291 C.ar    1  UNL1        0.0672
     21 C         140.3580  140.2484  166.9756 C.ar    1  UNL1        0.1508
     22 O         140.7420  139.8419  165.5838 O.2     1  UNL1       -0.4486
     23 C         141.8432  137.8453  156.7716 C.3     1  UNL1        0.0992
     24 C         141.9977  136.3928  156.4300 C.ar    1  UNL1       -0.0031
     25 C         141.2160  135.8021  155.2943 C.ar    1  UNL1       -0.0027
     26 C         141.3705  134.3498  154.9528 C.ar    1  UNL1        0.0028
     27 C         142.3068  133.4881  155.7470 C.ar    1  UNL1        0.0349
     28 C         142.4614  132.0356  155.4055 C.ar    1  UNL1        0.0097
     29 C         143.3977  131.1739  156.1997 C.ar    1  UNL1        0.0824
     30 C         144.1795  131.7647  157.3355 C.ar    1  UNL1        0.3459
     31 O         145.1158  130.9030  158.1297 O.2     1  UNL1       -0.2445
     32 O         144.0249  133.2171  157.6770 O.2     1  UNL1       -0.4210
     33 C         143.0886  134.0787  156.8828 C.ar    1  UNL1        0.1484
     34 C         142.9340  135.5311  157.2243 C.ar    1  UNL1        0.0347
@<TRIPOS>BOND
     1     7     8    2
     2     8     9   am
     3     9     1    1
     4     1     2    1
     5     2     3    1
     6     3     4    1
     7     4    23    1
     8    23    24    1
     9    24    25   ar
    10    25    26   ar
    11    26    27   ar
    12    27    28   ar
    13    28    29   ar
    14    29    30   ar
    15    30    31    2
    16    30    32   ar
    17    32    33   ar
    18    33    34   ar
    19     4     5    1
    20     5     6    1
    21     8    11    1
    22    11    12   ar
    23    12    13   ar
    24    13    14    2
    25    13    15   ar
    26    15    16   ar
    27    16    17   ar
    28    17    18   ar
    29    18    19    1
    30    18    20   ar
    31    20    21   ar
    32    21    22   ar
    33     6     1    1
    34    22    11   ar
    35    34    24   ar
    36    21    15   ar
    37    33    27   ar
    38     9    10    1
@<TRIPOS>MOLECULE
*****
 34 38 0 0 0
SMALL
GASTEIGER

@<TRIPOS>ATOM
      1 C         137.8086  139.5019  161.4059 C.3     1  UNL1        0.0747
      2 C         138.3557  138.1401  161.7161 C.3     1  UNL1        0.0369
      3 C         138.7752  137.8014  163.1158 C.3     1  UNL1        0.0741
      4 N         138.6477  138.8246  164.2054 N.3     1  UNL1       -0.2688
      5 C         138.1007  140.1864  163.8951 C.3     1  UNL1        0.0741
      6 C         137.6811  140.5250  162.4953 C.3     1  UNL1        0.0369
      7 O         139.8582  140.3679  159.3935 O.2     1  UNL1       -0.2668
      8 C         138.4138  140.2736  159.0000 C.2     1  UNL1        0.2806
      9 N         137.3890  139.8406  160.0062 N.am    1  UNL1       -0.2999
     10 H         136.4411  139.7787  159.7478 H       1  UNL1        0.1498
     11 C         137.9942  140.6122  157.6002 C.ar    1  UNL1        0.2014
     12 C         139.0312  140.8938  156.5537 C.ar    1  UNL1        0.0843
     13 C         138.6116  141.2324  155.1541 C.ar    1  UNL1        0.2018
     14 O         139.6487  141.5140  154.1075 O.2     1  UNL1       -0.2864
     15 C         137.1549  141.2896  154.8009 C.ar    1  UNL1        0.0737
     16 C         136.7352  141.6282  153.4011 C.ar    1  UNL1        0.0085
     17 C         135.2785  141.6853  153.0479 C.ar    1  UNL1        0.0299
     18 C         134.2415  141.4038  154.0945 C.ar    1  UNL1        0.1432
     19 F         132.7847  141.4609  153.7413 F       1  UNL1       -0.2041
     20 C         134.6611  141.0651  155.4942 C.ar    1  UNL1        0.0672
     21 C         136.1178  141.0080  155.8474 C.ar    1  UNL1        0.1508
     22 O         136.5375  140.6693  157.2470 O.2     1  UNL1       -0.4486
     23 C         139.0673  138.4859  165.6051 C.3     1  UNL1        0.0992
     24 C         139.8719  139.4671  166.4050 C.ar    1  UNL1       -0.0031
     25 C         141.0752  140.1236  165.7959 C.ar    1  UNL1       -0.0027
     26 C         141.8798  141.1047  166.5959 C.ar    1  UNL1        0.0028
     27 C         141.4811  141.4294  168.0050 C.ar    1  UNL1        0.0349
     28 C         142.2857  142.4106  168.8050 C.ar    1  UNL1        0.0097
     29 C         141.8870  142.7352  170.2141 C.ar    1  UNL1        0.0824
     30 C         140.6837  142.0786  170.8233 C.ar    1  UNL1        0.3459
     31 O         140.2850  142.4033  172.2324 O.2     1  UNL1       -0.2445
     32 O         139.8791  141.0975  170.0233 O.2     1  UNL1       -0.4210
     33 C         140.2778  140.7729  168.6142 C.ar    1  UNL1        0.1484
     34 C         139.4733  139.7917  167.8142 C.ar    1  UNL1        0.0347
@<TRIPOS>BOND
     1     7     8    2
     2     8     9   am
     3     9     1    1
     4     1     2    1
     5     2     3    1
     6     3     4    1
     7     4    23    1
     8    23    24    1
     9    24    25   ar
    10    25    26   ar
    11    26    27   ar
    12    27    28   ar
    13    28    29   ar
    14    29    30   ar
    15    30    31    2
    16    30    32   ar
    17    32    33   ar
    18    33    34   ar
    19     4     5    1
    20     5     6    1
    21     8    11    1
    22    11    12   ar
    23    12    13   ar
    24    13    14    2
    25    13    15   ar
    26    15    16   ar
    27    16    17   ar
    28    17    18   ar
    29    18    19    1
    30    18    20   ar
    31    20    21   ar
    32    21    22   ar
    33     6     1    1
    34    22    11   ar
    35    34    24   ar
    36    21    15   ar
    37    33    27   ar
    38     9    10    1
@<TRIPOS>MOLECULE
*****
 34 38 0 0 0
SMALL
GASTEIGER

@<TRIPOS>ATOM
      1 C         142.7996  138.5531  160.6573 C.3     1  UNL1        0.0747
      2 C         144.1128  139.1395  161.0835 C.3     1  UNL1        0.0369
      3 C         144.1462  140.2533  162.0877 C.3     1  UNL1        0.0741
      4 N         142.8664  140.7807  162.6657 N.3     1  UNL1       -0.2688
      5 C         141.5532  140.1943  162.2395 C.3     1  UNL1        0.0741
      6 C         141.5198  139.0804  161.2352 C.3     1  UNL1        0.0369
      7 O         142.2555  139.1535  157.7688 O.2     1  UNL1       -0.2668
      8 C         142.4941  137.7396  158.2089 C.2     1  UNL1        0.2806
      9 N         142.7662  137.4394  159.6531 N.am    1  UNL1       -0.2999
     10 H         142.9228  136.5113  159.9420 H       1  UNL1        0.1498
     11 C         142.4607  136.6257  157.2047 C.ar    1  UNL1        0.2014
     12 C         141.5496  136.7143  156.0164 C.ar    1  UNL1        0.0843
     13 C         141.5163  135.6005  155.0123 C.ar    1  UNL1        0.2018
     14 O         140.6051  135.6890  153.8240 O.2     1  UNL1       -0.2864
     15 C         142.3940  134.3981  155.1965 C.ar    1  UNL1        0.0737
     16 C         142.3606  133.2842  154.1923 C.ar    1  UNL1        0.0085
     17 C         143.2383  132.0819  154.3765 C.ar    1  UNL1        0.0299
     18 C         144.1494  131.9933  155.5648 C.ar    1  UNL1        0.1432
     19 F         145.0271  130.7910  155.7490 F       1  UNL1       -0.2041
     20 C         144.1828  133.1072  156.5689 C.ar    1  UNL1        0.0672
     21 C         143.3051  134.3095  156.3848 C.ar    1  UNL1        0.1508
     22 O         143.3384  135.4233  157.3889 O.2     1  UNL1       -0.4486
     23 C         142.8998  141.8944  163.6698 C.3     1  UNL1        0.0992
     24 C         142.4071  141.6596  165.0670 C.ar    1  UNL1       -0.0031
     25 C         141.3425  142.5440  165.6454 C.ar    1  UNL1       -0.0027
     26 C         140.8498  142.3091  167.0425 C.ar    1  UNL1        0.0028
     27 C         141.4216  141.1899  167.8613 C.ar    1  UNL1        0.0349
     28 C         140.9289  140.9551  169.2585 C.ar    1  UNL1        0.0097
     29 C         141.5007  139.8359  170.0773 C.ar    1  UNL1        0.0824
     30 C         142.5654  138.9516  169.4988 C.ar    1  UNL1        0.3459
     31 O         143.1372  137.8324  170.3176 O.2     1  UNL1       -0.2445
     32 O         143.0581  139.1864  168.1017 O.2     1  UNL1       -0.4210
     33 C         142.4862  140.3056  167.2829 C.ar    1  UNL1        0.1484
     34 C         142.9789  140.5404  165.8858 C.ar    1  UNL1        0.0347
@<TRIPOS>BOND
     1     7     8    2
     2     8     9   am
     3     9     1    1
     4     1     2    1
     5     2     3    1
     6     3     4    1
     7     4    23    1
     8    23    24    1
     9    24    25   ar
    10    25    26   ar
    11    26    27   ar
    12    27    28   ar
    13    28    29   ar
    14    29    30   ar
    15    30    31    2
    16    30    32   ar
    17    32    33   ar
    18    33    34   ar
    19     4     5    1
    20     5     6    1
    21     8    11    1
    22    11    12   ar
    23    12    13   ar
    24    13    14    2
    25    13    15   ar
    26    15    16   ar
    27    16    17   ar
    28    17    18   ar
    29    18    19    1
    30    18    20   ar
    31    20    21   ar
    32    21    22   ar
    33     6     1    1
    34    22    11   ar
    35    34    24   ar
    36    21    15   ar
    37    33    27   ar
    38     9    10    1
@<TRIPOS>MOLECULE
*****
 34 38 0 0 0
SMALL
GASTEIGER

@<TRIPOS>ATOM
      1 C         142.5898  138.7144  161.1150 C.3     1  UNL1        0.0747
      2 C         143.9503  138.8289  161.7364 C.3     1  UNL1        0.0369
      3 C         144.1663  139.7434  162.9055 C.3     1  UNL1        0.0741
      4 N         143.0218  140.5436  163.4534 N.3     1  UNL1       -0.2688
      5 C         141.6614  140.4291  162.8320 C.3     1  UNL1        0.0741
      6 C         141.4454  139.5145  161.6628 C.3     1  UNL1        0.0369
      7 O         143.6584  139.4573  158.4120 O.2     1  UNL1       -0.2668
      8 C         142.9081  138.1713  158.5944 C.2     1  UNL1        0.2806
      9 N         142.3738  137.7999  159.9459 N.am    1  UNL1       -0.2999
     10 H         141.8814  136.9559  160.0656 H       1  UNL1        0.1498
     11 C         142.6920  137.2567  157.4252 C.ar    1  UNL1        0.2014
     12 C         142.1079  137.7925  156.1518 C.ar    1  UNL1        0.0843
     13 C         141.8919  136.8779  154.9827 C.ar    1  UNL1        0.2018
     14 O         141.3077  137.4137  153.7092 O.2     1  UNL1       -0.2864
     15 C         142.2600  135.4275  155.0871 C.ar    1  UNL1        0.0737
     16 C         142.0440  134.5129  153.9179 C.ar    1  UNL1        0.0085
     17 C         142.4121  133.0625  154.0222 C.ar    1  UNL1        0.0299
     18 C         142.9962  132.5268  155.2958 C.ar    1  UNL1        0.1432
     19 F         143.3644  131.0764  155.4001 F       1  UNL1       -0.2041
     20 C         143.2123  133.4414  156.4648 C.ar    1  UNL1        0.0672
     21 C         142.8441  134.8917  156.3605 C.ar    1  UNL1        0.1508
     22 O         143.0602  135.8063  157.5296 O.2     1  UNL1       -0.4486
     23 C         143.2378  141.4581  164.6225 C.3     1  UNL1        0.0992
     24 C         142.7222  141.0766  165.9785 C.ar    1  UNL1       -0.0031
     25 C         142.9961  139.7077  166.5272 C.ar    1  UNL1       -0.0027
     26 C         142.4805  139.3262  167.8831 C.ar    1  UNL1        0.0028
     27 C         141.6909  140.3137  168.6903 C.ar    1  UNL1        0.0349
     28 C         141.1753  139.9321  170.0463 C.ar    1  UNL1        0.0097
     29 C         140.3857  140.9196  170.8535 C.ar    1  UNL1        0.0824
     30 C         140.1118  142.2885  170.3048 C.ar    1  UNL1        0.3459
     31 O         139.3223  143.2759  171.1120 O.2     1  UNL1       -0.2445
     32 O         140.6275  142.6700  168.9489 O.2     1  UNL1       -0.4210
     33 C         141.4170  141.6825  168.1416 C.ar    1  UNL1        0.1484
     34 C         141.9326  142.0640  166.7857 C.ar    1  UNL1        0.0347
@<TRIPOS>BOND
     1     7     8    2
     2     8     9   am
     3     9     1    1
     4     1     2    1
     5     2     3    1
     6     3     4    1
     7     4    23    1
     8    23    24    1
     9    24    25   ar
    10    25    26   ar
    11    26    27   ar
    12    27    28   ar
    13    28    29   ar
    14    29    30   ar
    15    30    31    2
    16    30    32   ar
    17    32    33   ar
    18    33    34   ar
    19     4     5    1
    20     5     6    1
    21     8    11    1
    22    11    12   ar
    23    12    13   ar
    24    13    14    2
    25    13    15   ar
    26    15    16   ar
    27    16    17   ar
    28    17    18   ar
    29    18    19    1
    30    18    20   ar
    31    20    21   ar
    32    21    22   ar
    33     6     1    1
    34    22    11   ar
    35    34    24   ar
    36    21    15   ar
    37    33    27   ar
    38     9    10    1
@<TRIPOS>MOLECULE
*****
 34 38 0 0 0
SMALL
GASTEIGER

@<TRIPOS>ATOM
      1 C         143.6037  139.0490  161.1674 C.3     1  UNL1        0.0747
      2 C         142.2770  138.4119  161.4575 C.3     1  UNL1        0.0369
      3 C         141.8128  138.2585  162.8755 C.3     1  UNL1        0.0741
      4 N         142.6752  138.7422  164.0036 N.3     1  UNL1       -0.2688
      5 C         144.0018  139.3793  163.7135 C.3     1  UNL1        0.0741
      6 C         144.4661  139.5326  162.2953 C.3     1  UNL1        0.0369
      7 O         143.1320  141.6255  159.7049 O.2     1  UNL1       -0.2668
      8 C         143.8321  140.4906  159.0181 C.2     1  UNL1        0.2806
      9 N         144.0680  139.2024  159.7494 N.am    1  UNL1       -0.2999
     10 H         144.5275  138.4575  159.2986 H       1  UNL1        0.1498
     11 C         144.2964  140.6440  157.6000 C.ar    1  UNL1        0.2014
     12 C         143.5226  140.0065  156.4844 C.ar    1  UNL1        0.0843
     13 C         143.9869  140.1598  155.0664 C.ar    1  UNL1        0.2018
     14 O         143.2131  139.5223  153.9506 O.2     1  UNL1       -0.2864
     15 C         145.2251  140.9507  154.7640 C.ar    1  UNL1        0.0737
     16 C         145.6894  141.1041  153.3459 C.ar    1  UNL1        0.0085
     17 C         146.9276  141.8950  153.0435 C.ar    1  UNL1        0.0299
     18 C         147.7014  142.5325  154.1592 C.ar    1  UNL1        0.1432
     19 F         148.9396  143.3234  153.8568 F       1  UNL1       -0.2041
     20 C         147.2371  142.3791  155.5772 C.ar    1  UNL1        0.0672
     21 C         145.9989  141.5882  155.8796 C.ar    1  UNL1        0.1508
     22 O         145.5346  141.4349  157.2976 O.2     1  UNL1       -0.4486
     23 C         142.2109  138.5888  165.4216 C.3     1  UNL1        0.0992
     24 C         141.7207  139.7842  166.1838 C.ar    1  UNL1       -0.0031
     25 C         141.2648  141.0084  165.4466 C.ar    1  UNL1       -0.0027
     26 C         140.7746  142.2037  166.2088 C.ar    1  UNL1        0.0028
     27 C         140.7402  142.1748  167.7081 C.ar    1  UNL1        0.0349
     28 C         140.2500  143.3702  168.4702 C.ar    1  UNL1        0.0097
     29 C         140.2157  143.3412  169.9696 C.ar    1  UNL1        0.0824
     30 C         140.6716  142.1170  170.7067 C.ar    1  UNL1        0.3459
     31 O         140.6373  142.0881  172.2061 O.2     1  UNL1       -0.2445
     32 O         141.1618  140.9217  169.9446 O.2     1  UNL1       -0.4210
     33 C         141.1961  140.9506  168.4453 C.ar    1  UNL1        0.1484
     34 C         141.6863  139.7553  167.6831 C.ar    1  UNL1        0.0347
@<TRIPOS>BOND
     1     7     8    2
     2     8     9   am
     3     9     1    1
     4     1     2    1
     5     2     3    1
     6     3     4    1
     7     4    23    1
     8    23    24    1
     9    24    25   ar
    10    25    26   ar
    11    26    27   ar
    12    27    28   ar
    13    28    29   ar
    14    29    30   ar
    15    30    31    2
    16    30    32   ar
    17    32    33   ar
    18    33    34   ar
    19     4     5    1
    20     5     6    1
    21     8    11    1
    22    11    12   ar
    23    12    13   ar
    24    13    14    2
    25    13    15   ar
    26    15    16   ar
    27    16    17   ar
    28    17    18   ar
    29    18    19    1
    30    18    20   ar
    31    20    21   ar
    32    21    22   ar
    33     6     1    1
    34    22    11   ar
    35    34    24   ar
    36    21    15   ar
    37    33    27   ar
    38     9    10    1
@<TRIPOS>MOLECULE
*****
 34 38 0 0 0
SMALL
GASTEIGER

@<TRIPOS>ATOM
      1 C         140.5816  140.7411  160.6167 C.3     1  UNL1        0.0747
      2 C         139.7531  140.3219  161.7948 C.3     1  UNL1        0.0369
      3 C         139.6682  141.2050  163.0043 C.3     1  UNL1        0.0741
      4 N         140.4117  142.5074  163.0357 N.3     1  UNL1       -0.2688
      5 C         141.2402  142.9267  161.8576 C.3     1  UNL1        0.0741
      6 C         141.3251  142.0435  160.6481 C.3     1  UNL1        0.0369
      7 O         142.6091  138.5325  160.5115 O.2     1  UNL1       -0.2668
      8 C         141.6803  138.7537  159.3546 C.2     1  UNL1        0.2806
      9 N         140.6666  139.8580  159.4073 N.am    1  UNL1       -0.2999
     10 H         140.0570  140.0032  158.6480 H       1  UNL1        0.1498
     11 C         141.7652  137.8706  158.1451 C.ar    1  UNL1        0.2014
     12 C         140.9354  138.1762  156.9335 C.ar    1  UNL1        0.0843
     13 C         141.0204  137.2931  155.7241 C.ar    1  UNL1        0.2018
     14 O         140.1905  137.5988  154.5124 O.2     1  UNL1       -0.2864
     15 C         141.9351  136.1044  155.7261 C.ar    1  UNL1        0.0737
     16 C         142.0201  135.2213  154.5166 C.ar    1  UNL1        0.0085
     17 C         142.9349  134.0325  154.5186 C.ar    1  UNL1        0.0299
     18 C         143.7647  133.7269  155.7303 C.ar    1  UNL1        0.1432
     19 F         144.6795  132.5381  155.7324 F       1  UNL1       -0.2041
     20 C         143.6798  134.6100  156.9398 C.ar    1  UNL1        0.0672
     21 C         142.7650  135.7987  156.9377 C.ar    1  UNL1        0.1508
     22 O         142.6800  136.6818  158.1472 O.2     1  UNL1       -0.4486
     23 C         140.3268  143.3905  164.2452 C.3     1  UNL1        0.0992
     24 C         141.0645  143.0201  165.4977 C.ar    1  UNL1       -0.0031
     25 C         142.5289  142.7009  165.4389 C.ar    1  UNL1       -0.0027
     26 C         143.2666  142.3305  166.6914 C.ar    1  UNL1        0.0028
     27 C         142.5398  142.2793  168.0025 C.ar    1  UNL1        0.0349
     28 C         143.2775  141.9088  169.2550 C.ar    1  UNL1        0.0097
     29 C         142.5507  141.8576  170.5662 C.ar    1  UNL1        0.0824
     30 C         141.0862  142.1768  170.6249 C.ar    1  UNL1        0.3459
     31 O         140.3594  142.1256  171.9360 O.2     1  UNL1       -0.2445
     32 O         140.3486  142.5472  169.3724 O.2     1  UNL1       -0.4210
     33 C         141.0753  142.5985  168.0613 C.ar    1  UNL1        0.1484
     34 C         140.3377  142.9689  166.8088 C.ar    1  UNL1        0.0347
@<TRIPOS>BOND
     1     7     8    2
     2     8     9   am
     3     9     1    1
     4     1     2    1
     5     2     3    1
     6     3     4    1
     7     4    23    1
     8    23    24    1
     9    24    25   ar
    10    25    26   ar
    11    26    27   ar
    12    27    28   ar
    13    28    29   ar
    14    29    30   ar
    15    30    31    2
    16    30    32   ar
    17    32    33   ar
    18    33    34   ar
    19     4     5    1
    20     5     6    1
    21     8    11    1
    22    11    12   ar
    23    12    13   ar
    24    13    14    2
    25    13    15   ar
    26    15    16   ar
    27    16    17   ar
    28    17    18   ar
    29    18    19    1
    30    18    20   ar
    31    20    21   ar
    32    21    22   ar
    33     6     1    1
    34    22    11   ar
    35    34    24   ar
    36    21    15   ar
    37    33    27   ar
    38     9    10    1
@<TRIPOS>MOLECULE
*****
 34 38 0 0 0
SMALL
GASTEIGER

@<TRIPOS>ATOM
      1 C         141.3735  139.2981  160.2819 C.3     1  UNL1        0.0747
      2 C         142.5136  139.3438  159.3082 C.3     1  UNL1        0.0369
      3 C         142.3084  138.8955  157.8915 C.3     1  UNL1        0.0741
      4 N         140.9631  138.4015  157.4485 N.3     1  UNL1       -0.2688
      5 C         139.8230  138.3559  158.4222 C.3     1  UNL1        0.0741
      6 C         140.0282  138.8042  159.8389 C.3     1  UNL1        0.0369
      7 O         141.3959  137.2833  162.5045 O.2     1  UNL1       -0.2668
      8 C         141.5899  138.7390  162.8098 C.2     1  UNL1        0.2806
      9 N         141.5787  139.7464  161.6985 N.am    1  UNL1       -0.2999
     10 H         141.7060  140.7019  161.8989 H       1  UNL1        0.1498
     11 C         141.7951  139.1874  164.2265 C.ar    1  UNL1        0.2014
     12 C         142.7032  138.4122  165.1344 C.ar    1  UNL1        0.0843
     13 C         142.9084  138.8606  166.5510 C.ar    1  UNL1        0.2018
     14 O         143.8166  138.0854  167.4590 O.2     1  UNL1       -0.2864
     15 C         142.2054  140.0841  167.0597 C.ar    1  UNL1        0.0737
     16 C         142.4106  140.5324  168.4764 C.ar    1  UNL1        0.0085
     17 C         141.7075  141.7559  168.9851 C.ar    1  UNL1        0.0299
     18 C         140.7993  142.5311  168.0772 C.ar    1  UNL1        0.1432
     19 F         140.0963  143.7546  168.5859 F       1  UNL1       -0.2041
     20 C         140.5942  142.0827  166.6605 C.ar    1  UNL1        0.0672
     21 C         141.2972  140.8592  166.1518 C.ar    1  UNL1        0.1508
     22 O         141.0920  140.4109  164.7352 O.2     1  UNL1       -0.4486
     23 C         140.7579  137.9533  156.0319 C.3     1  UNL1        0.0992
     24 C         141.2589  136.6101  155.5902 C.ar    1  UNL1       -0.0031
     25 C         140.7196  135.9828  154.3390 C.ar    1  UNL1       -0.0027
     26 C         141.2206  134.6397  153.8974 C.ar    1  UNL1        0.0028
     27 C         142.2611  133.9240  154.7069 C.ar    1  UNL1        0.0349
     28 C         142.7621  132.5809  154.2652 C.ar    1  UNL1        0.0097
     29 C         143.8026  131.8652  155.0747 C.ar    1  UNL1        0.0824
     30 C         144.3419  132.4927  156.3259 C.ar    1  UNL1        0.3459
     31 O         145.3824  131.7770  157.1354 O.2     1  UNL1       -0.2445
     32 O         143.8409  133.8357  156.7676 O.2     1  UNL1       -0.4210
     33 C         142.8004  134.5514  155.9581 C.ar    1  UNL1        0.1484
     34 C         142.2994  135.8945  156.3997 C.ar    1  UNL1        0.0347
@<TRIPOS>BOND
     1     7     8    2
     2     8     9   am
     3     9     1    1
     4     1     2    1
     5     2     3    1
     6     3     4    1
     7     4    23    1
     8    23    24    1
     9    24    25   ar
    10    25    26   ar
    11    26    27   ar
    12    27    28   ar
    13    28    29   ar
    14    29    30   ar
    15    30    31    2
    16    30    32   ar
    17    32    33   ar
    18    33    34   ar
    19     4     5    1
    20     5     6    1
    21     8    11    1
    22    11    12   ar
    23    12    13   ar
    24    13    14    2
    25    13    15   ar
    26    15    16   ar
    27    16    17   ar
    28    17    18   ar
    29    18    19    1
    30    18    20   ar
    31    20    21   ar
    32    21    22   ar
    33     6     1    1
    34    22    11   ar
    35    34    24   ar
    36    21    15   ar
    37    33    27   ar
    38     9    10    1
@<TRIPOS>MOLECULE
*****
 34 38 0 0 0
SMALL
GASTEIGER

@<TRIPOS>ATOM
      1 C         143.5139  139.5312  160.5119 C.3     1  UNL1        0.0747
      2 C         143.8781  140.4645  159.3955 C.3     1  UNL1        0.0369
      3 C         143.7134  140.0286  157.9697 C.3     1  UNL1        0.0741
      4 N         143.1846  138.6594  157.6603 N.3     1  UNL1       -0.2688
      5 C         142.8204  137.7262  158.7768 C.3     1  UNL1        0.0741
      6 C         142.9851  138.1621  160.2026 C.3     1  UNL1        0.0369
      7 O         141.1729  140.6489  162.0187 O.2     1  UNL1       -0.2668
      8 C         142.5081  140.5259  162.6911 C.2     1  UNL1        0.2806
      9 N         143.6786  139.9671  161.9377 N.am    1  UNL1       -0.2999
     10 H         144.5550  139.8864  162.3790 H       1  UNL1        0.1498
     11 C         142.6728  140.9618  164.1169 C.ar    1  UNL1        0.2014
     12 C         143.5364  142.1436  164.4449 C.ar    1  UNL1        0.0843
     13 C         143.7011  142.5794  165.8707 C.ar    1  UNL1        0.2018
     14 O         144.5646  143.7613  166.1988 O.2     1  UNL1       -0.2864
     15 C         143.0022  141.8334  166.9685 C.ar    1  UNL1        0.0737
     16 C         143.1670  142.2693  168.3943 C.ar    1  UNL1        0.0085
     17 C         142.4681  141.5233  169.4921 C.ar    1  UNL1        0.0299
     18 C         141.6046  140.3414  169.1641 C.ar    1  UNL1        0.1432
     19 F         140.9058  139.5954  170.2619 F       1  UNL1       -0.2041
     20 C         141.4399  139.9056  167.7383 C.ar    1  UNL1        0.0672
     21 C         142.1387  140.6516  166.6405 C.ar    1  UNL1        0.1508
     22 O         141.9740  140.2158  165.2147 O.2     1  UNL1       -0.4486
     23 C         143.0199  138.2236  156.2346 C.3     1  UNL1        0.0992
     24 C         142.6575  136.8019  155.9220 C.ar    1  UNL1       -0.0031
     25 C         141.2612  136.4607  155.4931 C.ar    1  UNL1       -0.0027
     26 C         140.8989  135.0391  155.1806 C.ar    1  UNL1        0.0028
     27 C         141.9329  133.9587  155.2968 C.ar    1  UNL1        0.0349
     28 C         141.5705  132.5370  154.9842 C.ar    1  UNL1        0.0097
     29 C         142.6045  131.4566  155.1004 C.ar    1  UNL1        0.0824
     30 C         144.0009  131.7978  155.5293 C.ar    1  UNL1        0.3459
     31 O         145.0349  130.7174  155.6455 O.2     1  UNL1       -0.2445
     32 O         144.3632  133.2194  155.8419 O.2     1  UNL1       -0.4210
     33 C         143.3292  134.2999  155.7256 C.ar    1  UNL1        0.1484
     34 C         143.6915  135.7214  156.0382 C.ar    1  UNL1        0.0347
@<TRIPOS>BOND
     1     7     8    2
     2     8     9   am
     3     9     1    1
     4     1     2    1
     5     2     3    1
     6     3     4    1
     7     4    23    1
     8    23    24    1
     9    24    25   ar
    10    25    26   ar
    11    26    27   ar
    12    27    28   ar
    13    28    29   ar
    14    29    30   ar
    15    30    31    2
    16    30    32   ar
    17    32    33   ar
    18    33    34   ar
    19     4     5    1
    20     5     6    1
    21     8    11    1
    22    11    12   ar
    23    12    13   ar
    24    13    14    2
    25    13    15   ar
    26    15    16   ar
    27    16    17   ar
    28    17    18   ar
    29    18    19    1
    30    18    20   ar
    31    20    21   ar
    32    21    22   ar
    33     6     1    1
    34    22    11   ar
    35    34    24   ar
    36    21    15   ar
    37    33    27   ar
    38     9    10    1
@<TRIPOS>MOLECULE
*****
 34 38 0 0 0
SMALL
GASTEIGER

@<TRIPOS>ATOM
      1 C         139.4446  138.6234  160.4281 C.3     1  UNL1        0.0747
      2 C         138.4790  138.1866  161.4896 C.3     1  UNL1        0.0369
      3 C         138.9714  137.8898  162.8751 C.3     1  UNL1        0.0741
      4 N         140.4293  138.0299  163.1990 N.3     1  UNL1       -0.2688
      5 C         141.3949  138.4667  162.1374 C.3     1  UNL1        0.0741
      6 C         140.9024  138.7635  160.7519 C.3     1  UNL1        0.0369
      7 O         138.3862  141.3509  159.7644 O.2     1  UNL1       -0.2668
      8 C         138.4230  140.2840  158.7108 C.2     1  UNL1        0.2806
      9 N         138.9522  138.9202  159.0426 N.am    1  UNL1       -0.2999
     10 H         138.9764  138.2199  158.3511 H       1  UNL1        0.1498
     11 C         137.9307  140.5807  157.3253 C.ar    1  UNL1        0.2014
     12 C         138.9105  140.7654  156.2047 C.ar    1  UNL1        0.0843
     13 C         138.4181  141.0622  154.8193 C.ar    1  UNL1        0.2018
     14 O         139.3979  141.2469  153.6986 O.2     1  UNL1       -0.2864
     15 C         136.9459  141.1741  154.5544 C.ar    1  UNL1        0.0737
     16 C         136.4536  141.4709  153.1689 C.ar    1  UNL1        0.0085
     17 C         134.9814  141.5829  152.9041 C.ar    1  UNL1        0.0299
     18 C         134.0016  141.3981  154.0248 C.ar    1  UNL1        0.1432
     19 F         132.5294  141.5101  153.7599 F       1  UNL1       -0.2041
     20 C         134.4939  141.1014  155.4102 C.ar    1  UNL1        0.0672
     21 C         135.9661  140.9894  155.6750 C.ar    1  UNL1        0.1508
     22 O         136.4585  140.6927  157.0605 O.2     1  UNL1       -0.4486
     23 C         140.9217  137.7331  164.5844 C.3     1  UNL1        0.0992
     24 C         140.7960  138.7682  165.6629 C.ar    1  UNL1       -0.0031
     25 C         139.4429  139.1351  166.1962 C.ar    1  UNL1       -0.0027
     26 C         139.3172  140.1701  167.2746 C.ar    1  UNL1        0.0028
     27 C         140.5446  140.8382  167.8196 C.ar    1  UNL1        0.0349
     28 C         140.4189  141.8732  168.8981 C.ar    1  UNL1        0.0097
     29 C         141.6464  142.5413  169.4431 C.ar    1  UNL1        0.0824
     30 C         142.9995  142.1743  168.9097 C.ar    1  UNL1        0.3459
     31 O         144.2269  142.8424  169.4548 O.2     1  UNL1       -0.2445
     32 O         143.1252  141.1393  167.8314 O.2     1  UNL1       -0.4210
     33 C         141.8977  140.4712  167.2863 C.ar    1  UNL1        0.1484
     34 C         142.0234  139.4362  166.2079 C.ar    1  UNL1        0.0347
@<TRIPOS>BOND
     1     7     8    2
     2     8     9   am
     3     9     1    1
     4     1     2    1
     5     2     3    1
     6     3     4    1
     7     4    23    1
     8    23    24    1
     9    24    25   ar
    10    25    26   ar
    11    26    27   ar
    12    27    28   ar
    13    28    29   ar
    14    29    30   ar
    15    30    31    2
    16    30    32   ar
    17    32    33   ar
    18    33    34   ar
    19     4     5    1
    20     5     6    1
    21     8    11    1
    22    11    12   ar
    23    12    13   ar
    24    13    14    2
    25    13    15   ar
    26    15    16   ar
    27    16    17   ar
    28    17    18   ar
    29    18    19    1
    30    18    20   ar
    31    20    21   ar
    32    21    22   ar
    33     6     1    1
    34    22    11   ar
    35    34    24   ar
    36    21    15   ar
    37    33    27   ar
    38     9    10    1
