@<TRIPOS>MOLECULE
*****
 39 42 0 0 0
SMALL
GASTEIGER

@<TRIPOS>ATOM
      1 C         139.8307  140.3055  160.9826 C.3     1  UNL1        0.0942
      2 C         140.8491  139.2839  160.5714 C.3     1  UNL1        0.1129
      3 N         141.6497  139.4850  159.3190 N.am    1  UNL1       -0.2778
      4 C         142.6682  138.4634  158.9077 C.2     1  UNL1        0.2262
      5 C         142.8860  137.2407  159.7488 C.3     1  UNL1        0.0948
      6 O         143.4688  138.6645  157.6553 O.2     1  UNL1       -0.2749
      7 C         141.4319  140.7077  158.4778 C.3     1  UNL1        0.0936
      8 C         140.4135  141.7293  158.8891 C.3     1  UNL1        0.0246
      9 C         139.6129  141.5282  160.1415 C.3     1  UNL1        0.0374
     10 N         138.8249  140.2448  164.8212 N.am    1  UNL1       -0.2485
     11 C         139.6255  140.4459  163.5688 C.2     1  UNL1        0.3059
     12 O         141.0216  140.9885  163.6501 O.2     1  UNL1       -0.2524
     13 N         139.0300  140.1044  162.2351 N.am    1  UNL1       -0.2885
     14 H         137.9086  139.8887  164.7679 H       1  UNL1        0.1583
     15 H         138.1137  139.7482  162.1817 H       1  UNL1        0.1510
     16 C         140.2348  140.4042  168.4340 C.ar    1  UNL1        0.0803
     17 S         139.6056  139.6421  167.3056 S.2     1  UNL1       -0.0488
     18 C         139.4204  140.5863  166.1549 C.ar    1  UNL1        0.1664
     19 N         139.9351  141.9320  166.5722 N.ar    1  UNL1       -0.2282
     20 C         140.4385  141.8195  167.9807 C.ar    1  UNL1        0.0701
     21 C         141.0399  142.9277  168.7932 C.3     1  UNL1        0.0528
     22 C         141.9970  139.3812  170.0458 C.3     1  UNL1        0.0779
     23 C         140.5968  139.8486  169.7795 C.2     1  UNL1        0.1807
     24 O         139.5587  139.7604  170.8585 O.2     1  UNL1       -0.2908
     25 C         138.5944  142.5498  160.5528 C.3     1  UNL1        0.0738
     26 N         138.7660  143.3049  161.8374 N.3     1  UNL1       -0.2726
     27 C         137.5858  143.5392  162.7331 C.3     1  UNL1        0.0721
     28 C         137.7574  144.2943  164.0178 C.3     1  UNL1        0.0174
     29 C         139.1093  144.8151  164.4068 C.3     1  UNL1        0.0031
     30 C         140.2895  144.5807  163.5111 C.3     1  UNL1        0.0204
     31 C         140.1178  143.8256  162.2265 C.3     1  UNL1        0.0724
     32 C         141.6414  145.1014  163.9002 C.3     1  UNL1        0.0277
     33 C         142.8317  144.1889  163.8770 C.ar    1  UNL1       -0.0220
     34 C         143.6842  144.0994  162.6460 C.ar    1  UNL1       -0.0020
     35 C         144.8745  143.1869  162.6228 C.ar    1  UNL1        0.0293
     36 C         145.2123  142.3640  163.8306 C.ar    1  UNL1        0.1401
     37 F         146.4026  141.4515  163.8074 F       1  UNL1       -0.2042
     38 C         144.3598  142.4536  165.0615 C.ar    1  UNL1        0.0293
     39 C         143.1695  143.3660  165.0847 C.ar    1  UNL1       -0.0020
@<TRIPOS>BOND
     1    22    23    1
     2    23    24    2
     3    23    16    1
     4    16    17   ar
     5    17    18   ar
     6    18    10    1
     7    10    11   am
     8    11    12    2
     9    11    13   am
    10     1    13    1
    11     1     2    1
    12     2     3    1
    13     3     4   am
    14     4     5    1
    15     4     6    2
    16     3     7    1
    17     7     8    1
    18     8     9    1
    19     9    25    1
    20    25    26    1
    21    26    27    1
    22    27    28    1
    23    28    29    1
    24    29    30    1
    25    30    32    1
    26    32    33    1
    27    33    34   ar
    28    34    35   ar
    29    35    36   ar
    30    36    37    1
    31    36    38   ar
    32    38    39   ar
    33    30    31    1
    34    18    19   ar
    35    19    20   ar
    36    20    21    1
    37    20    16   ar
    38     9     1    1
    39    31    26    1
    40    39    33   ar
    41    10    14    1
    42    13    15    1
@<TRIPOS>MOLECULE
*****
 39 42 0 0 0
SMALL
GASTEIGER

@<TRIPOS>ATOM
      1 C         141.8789  144.1788  160.7314 C.3     1  UNL1        0.0942
      2 C         142.9197  143.5421  159.8589 C.3     1  UNL1        0.1129
      3 N         142.6516  143.3407  158.3969 N.am    1  UNL1       -0.2778
      4 C         143.6924  142.7039  157.5243 C.2     1  UNL1        0.2262
      5 C         145.0012  142.2686  158.1138 C.3     1  UNL1        0.0948
      6 O         143.4244  142.5026  156.0623 O.2     1  UNL1       -0.2749
      7 C         141.3428  143.7761  157.8074 C.3     1  UNL1        0.0936
      8 C         140.3021  144.4128  158.6799 C.3     1  UNL1        0.0246
      9 C         140.5701  144.6142  160.1420 C.3     1  UNL1        0.0374
     10 N         142.2095  143.4500  164.6186 N.am    1  UNL1       -0.2485
     11 C         141.9415  143.2486  163.1565 C.2     1  UNL1        0.3059
     12 O         141.4681  141.9156  162.6574 O.2     1  UNL1       -0.2524
     13 N         142.1469  144.3802  162.1936 N.am    1  UNL1       -0.2885
     14 H         142.5202  144.3248  164.9461 H       1  UNL1        0.1583
     15 H         142.4576  145.2551  162.5211 H       1  UNL1        0.1510
     16 C         142.3627  140.3025  166.8848 C.ar    1  UNL1        0.0803
     17 S         142.9750  141.2091  165.8586 S.2     1  UNL1       -0.0488
     18 C         142.0040  142.3184  165.5815 C.ar    1  UNL1        0.1664
     19 N         140.7915  142.0973  166.4365 N.ar    1  UNL1       -0.2282
     20 C         141.0132  140.8514  167.2420 C.ar    1  UNL1        0.0701
     21 C         140.0537  140.2586  168.2309 C.3     1  UNL1        0.0528
     22 C         143.5983  138.0435  166.5389 C.3     1  UNL1        0.0779
     23 C         142.9897  139.0644  167.4539 C.2     1  UNL1        0.1807
     24 O         143.0082  138.8473  168.9379 O.2     1  UNL1       -0.2908
     25 C         139.5293  145.2509  161.0146 C.3     1  UNL1        0.0738
     26 N         138.9581  144.4926  162.1758 N.3     1  UNL1       -0.2726
     27 C         138.8368  145.1539  163.5168 C.3     1  UNL1        0.0721
     28 C         138.2655  144.3955  164.6781 C.3     1  UNL1        0.0174
     29 C         137.8156  142.9759  164.4984 C.3     1  UNL1        0.0031
     30 C         137.9369  142.3147  163.1575 C.3     1  UNL1        0.0204
     31 C         138.5082  143.0730  161.9962 C.3     1  UNL1        0.0724
     32 C         137.4870  140.8950  162.9779 C.3     1  UNL1        0.0277
     33 C         138.4061  139.7657  163.3382 C.ar    1  UNL1       -0.0220
     34 C         138.5733  139.3636  164.7737 C.ar    1  UNL1       -0.0020
     35 C         139.4924  138.2343  165.1340 C.ar    1  UNL1        0.0293
     36 C         140.2443  137.5070  164.0588 C.ar    1  UNL1        0.1401
     37 F         141.1634  136.3776  164.4192 F       1  UNL1       -0.2042
     38 C         140.0770  137.9090  162.6235 C.ar    1  UNL1        0.0293
     39 C         139.1579  139.0384  162.2632 C.ar    1  UNL1       -0.0020
@<TRIPOS>BOND
     1    22    23    1
     2    23    24    2
     3    23    16    1
     4    16    17   ar
     5    17    18   ar
     6    18    10    1
     7    10    11   am
     8    11    12    2
     9    11    13   am
    10     1    13    1
    11     1     2    1
    12     2     3    1
    13     3     4   am
    14     4     5    1
    15     4     6    2
    16     3     7    1
    17     7     8    1
    18     8     9    1
    19     9    25    1
    20    25    26    1
    21    26    27    1
    22    27    28    1
    23    28    29    1
    24    29    30    1
    25    30    32    1
    26    32    33    1
    27    33    34   ar
    28    34    35   ar
    29    35    36   ar
    30    36    37    1
    31    36    38   ar
    32    38    39   ar
    33    30    31    1
    34    18    19   ar
    35    19    20   ar
    36    20    21    1
    37    20    16   ar
    38     9     1    1
    39    31    26    1
    40    39    33   ar
    41    10    14    1
    42    13    15    1
@<TRIPOS>MOLECULE
*****
 39 42 0 0 0
SMALL
GASTEIGER

@<TRIPOS>ATOM
      1 C         141.8620  144.1979  160.8472 C.3     1  UNL1        0.0942
      2 C         142.9022  143.5815  159.9594 C.3     1  UNL1        0.1129
      3 N         142.6408  143.4318  158.4900 N.am    1  UNL1       -0.2778
      4 C         143.6811  142.8154  157.6022 C.2     1  UNL1        0.2262
      5 C         144.9826  142.3488  158.1839 C.3     1  UNL1        0.0948
      6 O         143.4197  142.6656  156.1328 O.2     1  UNL1       -0.2749
      7 C         141.3393  143.8983  157.9083 C.3     1  UNL1        0.0936
      8 C         140.2991  144.5146  158.7961 C.3     1  UNL1        0.0246
      9 C         140.5605  144.6644  160.2655 C.3     1  UNL1        0.0374
     10 N         142.2822  143.3058  164.6914 N.am    1  UNL1       -0.2485
     11 C         142.0209  143.1561  163.2219 C.2     1  UNL1        0.3059
     12 O         141.6572  141.8146  162.6577 O.2     1  UNL1       -0.2524
     13 N         142.1233  144.3477  162.3167 N.am    1  UNL1       -0.2885
     14 H         142.5209  144.1862  165.0617 H       1  UNL1        0.1583
     15 H         142.3620  145.2281  162.6869 H       1  UNL1        0.1510
     16 C         141.4589  140.6098  167.3595 C.ar    1  UNL1        0.0803
     17 S         141.2083  141.9466  166.7271 S.2     1  UNL1       -0.0488
     18 C         142.1798  142.1142  165.5966 C.ar    1  UNL1        0.1664
     19 N         143.0309  140.8808  165.5304 N.ar    1  UNL1       -0.2282
     20 C         142.5855  139.9510  166.6199 C.ar    1  UNL1        0.0701
     21 C         143.1648  138.5998  166.9175 C.3     1  UNL1        0.0528
     22 C         141.4226  139.8010  169.8282 C.3     1  UNL1        0.0779
     23 C         140.7139  140.0329  168.5267 C.2     1  UNL1        0.1807
     24 O         139.2604  139.6881  168.3923 O.2     1  UNL1       -0.2908
     25 C         139.5203  145.2808  161.1533 C.3     1  UNL1        0.0738
     26 N         138.9591  144.5004  162.3048 N.3     1  UNL1       -0.2726
     27 C         138.8388  145.1397  163.6565 C.3     1  UNL1        0.0721
     28 C         138.2777  144.3593  164.8080 C.3     1  UNL1        0.0174
     29 C         137.8369  142.9395  164.6079 C.3     1  UNL1        0.0031
     30 C         137.9572  142.3002  163.2564 C.3     1  UNL1        0.0204
     31 C         138.5184  143.0806  162.1048 C.3     1  UNL1        0.0724
     32 C         137.5164  140.8804  163.0563 C.3     1  UNL1        0.0277
     33 C         138.4395  139.7518  163.4088 C.ar    1  UNL1       -0.0220
     34 C         138.6299  139.3591  164.8440 C.ar    1  UNL1       -0.0020
     35 C         139.5529  138.2305  165.1965 C.ar    1  UNL1        0.0293
     36 C         140.2855  137.4946  164.1140 C.ar    1  UNL1        0.1401
     37 F         141.2085  136.3659  164.4665 F       1  UNL1       -0.2042
     38 C         140.0950  137.8873  162.6789 C.ar    1  UNL1        0.0293
     39 C         139.1720  139.0159  162.3263 C.ar    1  UNL1       -0.0020
@<TRIPOS>BOND
     1    22    23    1
     2    23    24    2
     3    23    16    1
     4    16    17   ar
     5    17    18   ar
     6    18    10    1
     7    10    11   am
     8    11    12    2
     9    11    13   am
    10     1    13    1
    11     1     2    1
    12     2     3    1
    13     3     4   am
    14     4     5    1
    15     4     6    2
    16     3     7    1
    17     7     8    1
    18     8     9    1
    19     9    25    1
    20    25    26    1
    21    26    27    1
    22    27    28    1
    23    28    29    1
    24    29    30    1
    25    30    32    1
    26    32    33    1
    27    33    34   ar
    28    34    35   ar
    29    35    36   ar
    30    36    37    1
    31    36    38   ar
    32    38    39   ar
    33    30    31    1
    34    18    19   ar
    35    19    20   ar
    36    20    21    1
    37    20    16   ar
    38     9     1    1
    39    31    26    1
    40    39    33   ar
    41    10    14    1
    42    13    15    1
@<TRIPOS>MOLECULE
*****
 39 42 0 0 0
SMALL
GASTEIGER

@<TRIPOS>ATOM
      1 C         142.7911  141.2913  167.2845 C.3     1  UNL1        0.0942
      2 C         142.1850  142.2301  168.2851 C.3     1  UNL1        0.1129
      3 N         141.5785  141.6919  169.5470 N.am    1  UNL1       -0.2778
      4 C         140.9723  142.6307  170.5477 C.2     1  UNL1        0.2262
      5 C         140.9726  144.1077  170.2863 C.3     1  UNL1        0.0948
      6 O         140.3659  142.0924  171.8096 O.2     1  UNL1       -0.2749
      7 C         141.5782  140.2148  169.8083 C.3     1  UNL1        0.0936
      8 C         142.1844  139.2760  168.8078 C.3     1  UNL1        0.0246
      9 C         142.7908  139.8143  167.5458 C.3     1  UNL1        0.0374
     10 N         143.1460  143.0913  163.7654 N.am    1  UNL1       -0.2485
     11 C         142.5396  142.5530  165.0273 C.2     1  UNL1        0.3059
     12 O         141.0751  142.7383  165.2941 O.2     1  UNL1       -0.2524
     13 N         143.3976  141.8296  166.0225 N.am    1  UNL1       -0.2885
     14 H         144.1071  142.9697  163.5903 H       1  UNL1        0.1583
     15 H         144.3587  141.7080  165.8475 H       1  UNL1        0.1510
     16 C         141.2539  144.5084  160.6868 C.ar    1  UNL1        0.0803
     17 S         142.2468  143.5611  161.2923 S.2     1  UNL1       -0.0488
     18 C         142.2880  143.8147  162.7702 C.ar    1  UNL1        0.1664
     19 N         141.3205  144.9189  163.0780 N.ar    1  UNL1       -0.2282
     20 C         140.6814  145.3476  161.7905 C.ar    1  UNL1        0.0701
     21 C         139.6507  146.4262  161.6340 C.3     1  UNL1        0.0528
     22 C         141.9514  144.9360  158.2210 C.3     1  UNL1        0.0779
     23 C         140.8963  144.6005  159.2330 C.2     1  UNL1        0.1807
     24 O         139.4838  144.3569  158.7912 O.2     1  UNL1       -0.2908
     25 C         143.3970  138.8755  166.5452 C.3     1  UNL1        0.0738
     26 N         142.9123  138.8772  165.1257 N.3     1  UNL1       -0.2726
     27 C         143.8900  138.7188  163.9991 C.3     1  UNL1        0.0721
     28 C         143.4052  138.7205  162.5796 C.3     1  UNL1        0.0174
     29 C         141.9428  138.8806  162.2866 C.3     1  UNL1        0.0031
     30 C         140.9652  139.0390  163.4132 C.3     1  UNL1        0.0204
     31 C         141.4499  139.0373  164.8327 C.3     1  UNL1        0.0724
     32 C         139.5028  139.1991  163.1202 C.3     1  UNL1        0.0277
     33 C         138.8903  140.5679  163.0857 C.ar    1  UNL1       -0.0220
     34 C         138.2799  141.1480  164.3270 C.ar    1  UNL1       -0.0020
     35 C         137.6674  142.5168  164.2924 C.ar    1  UNL1        0.0293
     36 C         137.6653  143.3055  163.0165 C.ar    1  UNL1        0.1401
     37 F         137.0528  144.6743  162.9819 F       1  UNL1       -0.2042
     38 C         138.2757  142.7254  161.7752 C.ar    1  UNL1        0.0293
     39 C         138.8881  141.3566  161.8098 C.ar    1  UNL1       -0.0020
@<TRIPOS>BOND
     1    22    23    1
     2    23    24    2
     3    23    16    1
     4    16    17   ar
     5    17    18   ar
     6    18    10    1
     7    10    11   am
     8    11    12    2
     9    11    13   am
    10     1    13    1
    11     1     2    1
    12     2     3    1
    13     3     4   am
    14     4     5    1
    15     4     6    2
    16     3     7    1
    17     7     8    1
    18     8     9    1
    19     9    25    1
    20    25    26    1
    21    26    27    1
    22    27    28    1
    23    28    29    1
    24    29    30    1
    25    30    32    1
    26    32    33    1
    27    33    34   ar
    28    34    35   ar
    29    35    36   ar
    30    36    37    1
    31    36    38   ar
    32    38    39   ar
    33    30    31    1
    34    18    19   ar
    35    19    20   ar
    36    20    21    1
    37    20    16   ar
    38     9     1    1
    39    31    26    1
    40    39    33   ar
    41    10    14    1
    42    13    15    1
@<TRIPOS>MOLECULE
*****
 39 42 0 0 0
SMALL
GASTEIGER

@<TRIPOS>ATOM
      1 C         139.7985  143.6557  159.3426 C.3     1  UNL1        0.0942
      2 C         140.2139  142.8483  158.1487 C.3     1  UNL1        0.1129
      3 N         141.2863  143.3603  157.2334 N.am    1  UNL1       -0.2778
      4 C         141.7018  142.5528  156.0394 C.2     1  UNL1        0.2262
      5 C         141.0448  141.2334  155.7608 C.3     1  UNL1        0.0948
      6 O         142.7742  143.0648  155.1241 O.2     1  UNL1       -0.2749
      7 C         141.9433  144.6796  157.5120 C.3     1  UNL1        0.0936
      8 C         141.5279  145.4871  158.7059 C.3     1  UNL1        0.0246
      9 C         140.4555  144.9751  159.6212 C.3     1  UNL1        0.0374
     10 N         137.9882  141.6188  162.2277 N.am    1  UNL1       -0.2485
     11 C         139.0606  142.1307  161.3124 C.2     1  UNL1        0.3059
     12 O         140.4676  141.6296  161.4514 O.2     1  UNL1       -0.2524
     13 N         138.7260  143.1438  160.2580 N.am    1  UNL1       -0.2885
     14 H         137.0648  141.9477  162.1365 H       1  UNL1        0.1583
     15 H         137.8026  143.4727  160.1667 H       1  UNL1        0.1510
     16 C         138.5267  139.4870  165.4263 C.ar    1  UNL1        0.0803
     17 S         138.0164  140.7225  164.7459 S.2     1  UNL1       -0.0488
     18 C         138.3228  140.6057  163.2821 C.ar    1  UNL1        0.1664
     19 N         139.0225  139.2980  163.0580 N.ar    1  UNL1       -0.2282
     20 C         139.1485  138.6066  164.3831 C.ar    1  UNL1        0.0701
     21 C         139.7847  137.2695  164.6230 C.3     1  UNL1        0.0528
     22 C         139.2657  139.9559  167.8725 C.3     1  UNL1        0.0779
     23 C         138.4319  139.1849  166.8925 C.2     1  UNL1        0.1807
     24 O         137.5034  138.1120  167.3787 O.2     1  UNL1       -0.2908
     25 C         140.0400  145.7826  160.8152 C.3     1  UNL1        0.0738
     26 N         140.1071  145.1810  162.1876 N.3     1  UNL1       -0.2726
     27 C         138.8785  145.1342  163.0469 C.3     1  UNL1        0.0721
     28 C         138.9457  144.5326  164.4194 C.3     1  UNL1        0.0174
     29 C         140.2415  143.9778  164.9325 C.3     1  UNL1        0.0031
     30 C         141.4700  144.0246  164.0732 C.3     1  UNL1        0.0204
     31 C         141.4028  144.6262  162.7007 C.3     1  UNL1        0.0724
     32 C         142.7658  143.4698  164.5863 C.3     1  UNL1        0.0277
     33 C         142.7628  142.2804  165.5003 C.ar    1  UNL1       -0.0220
     34 C         142.4358  140.9199  164.9597 C.ar    1  UNL1       -0.0020
     35 C         142.4328  139.7305  165.8737 C.ar    1  UNL1        0.0293
     36 C         142.7568  139.9017  167.3283 C.ar    1  UNL1        0.1401
     37 F         142.7538  138.7124  168.2424 F       1  UNL1       -0.2042
     38 C         143.0838  141.2622  167.8688 C.ar    1  UNL1        0.0293
     39 C         143.0868  142.4515  166.9548 C.ar    1  UNL1       -0.0020
@<TRIPOS>BOND
     1    22    23    1
     2    23    24    2
     3    23    16    1
     4    16    17   ar
     5    17    18   ar
     6    18    10    1
     7    10    11   am
     8    11    12    2
     9    11    13   am
    10     1    13    1
    11     1     2    1
    12     2     3    1
    13     3     4   am
    14     4     5    1
    15     4     6    2
    16     3     7    1
    17     7     8    1
    18     8     9    1
    19     9    25    1
    20    25    26    1
    21    26    27    1
    22    27    28    1
    23    28    29    1
    24    29    30    1
    25    30    32    1
    26    32    33    1
    27    33    34   ar
    28    34    35   ar
    29    35    36   ar
    30    36    37    1
    31    36    38   ar
    32    38    39   ar
    33    30    31    1
    34    18    19   ar
    35    19    20   ar
    36    20    21    1
    37    20    16   ar
    38     9     1    1
    39    31    26    1
    40    39    33   ar
    41    10    14    1
    42    13    15    1
@<TRIPOS>MOLECULE
*****
 39 42 0 0 0
SMALL
GASTEIGER

@<TRIPOS>ATOM
      1 C         141.0615  139.7935  166.8896 C.3     1  UNL1        0.0942
      2 C         141.9504  140.7220  167.6626 C.3     1  UNL1        0.1129
      3 N         141.4675  141.3257  168.9480 N.am    1  UNL1       -0.2778
      4 C         142.3564  142.2542  169.7212 C.2     1  UNL1        0.2262
      5 C         143.7283  142.5790  169.2089 C.3     1  UNL1        0.0948
      6 O         141.8734  142.8580  171.0065 O.2     1  UNL1       -0.2749
      7 C         140.0956  141.0010  169.4603 C.3     1  UNL1        0.0936
      8 C         139.2066  140.0725  168.6872 C.3     1  UNL1        0.0246
      9 C         139.6896  139.4688  167.4018 C.3     1  UNL1        0.0374
     10 N         142.0240  139.4010  163.0595 N.am    1  UNL1       -0.2485
     11 C         141.5410  140.0047  164.3448 C.2     1  UNL1        0.3059
     12 O         141.0546  141.4235  164.3710 O.2     1  UNL1       -0.2524
     13 N         141.5445  139.1897  165.6041 N.am    1  UNL1       -0.2885
     14 H         142.3432  138.4699  163.0423 H       1  UNL1        0.1583
     15 H         141.8637  138.2586  165.5870 H       1  UNL1        0.1510
     16 C         142.6490  141.8077  160.0790 C.ar    1  UNL1        0.0803
     17 S         143.0439  141.2412  161.4106 S.2     1  UNL1       -0.0488
     18 C         142.0205  140.2160  161.8002 C.ar    1  UNL1        0.1664
     19 N         140.9932  140.1489  160.7093 N.ar    1  UNL1       -0.2282
     20 C         141.3815  141.1326  159.6456 C.ar    1  UNL1        0.0701
     21 C         140.6338  141.3951  158.3720 C.3     1  UNL1        0.0528
     22 C         144.7409  142.5608  158.7350 C.3     1  UNL1        0.0779
     23 C         143.3912  142.8638  159.3150 C.2     1  UNL1        0.1807
     24 O         142.7837  144.2228  159.1311 O.2     1  UNL1       -0.2908
     25 C         138.8007  138.5403  166.6287 C.3     1  UNL1        0.0738
     26 N         138.5354  138.7937  165.1742 N.3     1  UNL1       -0.2726
     27 C         138.7944  137.7142  164.1654 C.3     1  UNL1        0.0721
     28 C         138.5292  137.9677  162.7109 C.3     1  UNL1        0.0174
     29 C         138.0049  139.3006  162.2653 C.3     1  UNL1        0.0031
     30 C         137.7459  140.3800  163.2742 C.3     1  UNL1        0.0204
     31 C         138.0111  140.1266  164.7286 C.3     1  UNL1        0.0724
     32 C         137.2215  141.7129  162.8286 C.3     1  UNL1        0.0277
     33 C         138.1407  142.8965  162.7628 C.ar    1  UNL1       -0.0220
     34 C         138.2348  143.8387  163.9262 C.ar    1  UNL1       -0.0020
     35 C         139.1539  145.0222  163.8604 C.ar    1  UNL1        0.0293
     36 C         139.9790  145.2636  162.6311 C.ar    1  UNL1        0.1401
     37 F         140.8982  146.4472  162.5653 F       1  UNL1       -0.2042
     38 C         139.8850  144.3214  161.4678 C.ar    1  UNL1        0.0293
     39 C         138.9658  143.1379  161.5336 C.ar    1  UNL1       -0.0020
@<TRIPOS>BOND
     1    22    23    1
     2    23    24    2
     3    23    16    1
     4    16    17   ar
     5    17    18   ar
     6    18    10    1
     7    10    11   am
     8    11    12    2
     9    11    13   am
    10     1    13    1
    11     1     2    1
    12     2     3    1
    13     3     4   am
    14     4     5    1
    15     4     6    2
    16     3     7    1
    17     7     8    1
    18     8     9    1
    19     9    25    1
    20    25    26    1
    21    26    27    1
    22    27    28    1
    23    28    29    1
    24    29    30    1
    25    30    32    1
    26    32    33    1
    27    33    34   ar
    28    34    35   ar
    29    35    36   ar
    30    36    37    1
    31    36    38   ar
    32    38    39   ar
    33    30    31    1
    34    18    19   ar
    35    19    20   ar
    36    20    21    1
    37    20    16   ar
    38     9     1    1
    39    31    26    1
    40    39    33   ar
    41    10    14    1
    42    13    15    1
@<TRIPOS>MOLECULE
*****
 39 42 0 0 0
SMALL
GASTEIGER

@<TRIPOS>ATOM
      1 C         142.5685  141.3617  167.4855 C.3     1  UNL1        0.0942
      2 C         141.8273  142.3843  168.2949 C.3     1  UNL1        0.1129
      3 N         141.0932  141.9702  169.5357 N.am    1  UNL1       -0.2778
      4 C         140.3520  142.9927  170.3451 C.2     1  UNL1        0.2262
      5 C         140.3451  144.4293  169.9137 C.3     1  UNL1        0.0948
      6 O         139.6179  142.5786  171.5859 O.2     1  UNL1       -0.2749
      7 C         141.1002  140.5336  169.9671 C.3     1  UNL1        0.0936
      8 C         141.8413  139.5110  169.1577 C.3     1  UNL1        0.0246
      9 C         142.5754  139.9251  167.9169 C.3     1  UNL1        0.0374
     10 N         143.2722  142.5419  163.7624 N.am    1  UNL1       -0.2485
     11 C         142.5381  142.1279  165.0032 C.2     1  UNL1        0.3059
     12 O         141.0393  142.0659  165.0024 O.2     1  UNL1       -0.2524
     13 N         143.3027  141.7758  166.2447 N.am    1  UNL1       -0.2885
     14 H         144.2558  142.5826  163.7628 H       1  UNL1        0.1583
     15 H         144.2863  141.8164  166.2452 H       1  UNL1        0.1510
     16 C         141.3323  144.1576  160.8142 C.ar    1  UNL1        0.0803
     17 S         142.0602  144.2688  162.1210 S.2     1  UNL1       -0.0488
     18 C         142.5076  142.8940  162.5208 C.ar    1  UNL1        0.1664
     19 N         142.0562  141.9332  161.4611 N.ar    1  UNL1       -0.2282
     20 C         141.3298  142.7141  160.4063 C.ar    1  UNL1        0.0701
     21 C         140.7098  142.1505  159.1622 C.3     1  UNL1        0.0528
     22 C         141.2766  145.6902  158.7171 C.3     1  UNL1        0.0779
     23 C         140.7152  145.2909  160.0495 C.2     1  UNL1        0.1807
     24 O         139.5367  146.0249  160.6172 O.2     1  UNL1       -0.2908
     25 C         143.3166  138.9026  167.1075 C.3     1  UNL1        0.0738
     26 N         143.0202  138.7448  165.6455 N.3     1  UNL1       -0.2726
     27 C         144.0933  139.0056  164.6303 C.3     1  UNL1        0.0721
     28 C         143.7969  138.8478  163.1684 C.3     1  UNL1        0.0174
     29 C         142.4274  138.4293  162.7217 C.3     1  UNL1        0.0031
     30 C         141.3545  138.1685  163.7369 C.3     1  UNL1        0.0204
     31 C         141.6508  138.3263  165.1988 C.3     1  UNL1        0.0724
     32 C         139.9850  137.7500  163.2901 C.3     1  UNL1        0.0277
     33 C         139.3225  138.4540  162.1432 C.ar    1  UNL1       -0.0220
     34 C         139.7546  138.1659  160.7359 C.ar    1  UNL1       -0.0020
     35 C         139.0921  138.8699  159.5890 C.ar    1  UNL1        0.0293
     36 C         137.9975  139.8620  159.8493 C.ar    1  UNL1        0.1401
     37 F         137.3350  140.5660  158.7023 F       1  UNL1       -0.2042
     38 C         137.5654  140.1500  161.2565 C.ar    1  UNL1        0.0293
     39 C         138.2279  139.4460  162.4034 C.ar    1  UNL1       -0.0020
@<TRIPOS>BOND
     1    22    23    1
     2    23    24    2
     3    23    16    1
     4    16    17   ar
     5    17    18   ar
     6    18    10    1
     7    10    11   am
     8    11    12    2
     9    11    13   am
    10     1    13    1
    11     1     2    1
    12     2     3    1
    13     3     4   am
    14     4     5    1
    15     4     6    2
    16     3     7    1
    17     7     8    1
    18     8     9    1
    19     9    25    1
    20    25    26    1
    21    26    27    1
    22    27    28    1
    23    28    29    1
    24    29    30    1
    25    30    32    1
    26    32    33    1
    27    33    34   ar
    28    34    35   ar
    29    35    36   ar
    30    36    37    1
    31    36    38   ar
    32    38    39   ar
    33    30    31    1
    34    18    19   ar
    35    19    20   ar
    36    20    21    1
    37    20    16   ar
    38     9     1    1
    39    31    26    1
    40    39    33   ar
    41    10    14    1
    42    13    15    1
@<TRIPOS>MOLECULE
*****
 39 42 0 0 0
SMALL
GASTEIGER

@<TRIPOS>ATOM
      1 C         139.3038  143.0781  158.8364 C.3     1  UNL1        0.0942
      2 C         139.0576  141.9370  157.8946 C.3     1  UNL1        0.1129
      3 N         139.8826  141.8010  156.6493 N.am    1  UNL1       -0.2778
      4 C         139.6364  140.6597  155.7074 C.2     1  UNL1        0.2262
      5 C         138.5652  139.6545  156.0110 C.3     1  UNL1        0.0948
      6 O         140.4614  140.5237  154.4621 O.2     1  UNL1       -0.2749
      7 C         140.9538  142.8062  156.3457 C.3     1  UNL1        0.0936
      8 C         141.2000  143.9474  157.2875 C.3     1  UNL1        0.0246
      9 C         140.3750  144.0833  158.5329 C.3     1  UNL1        0.0374
     10 N         138.0156  142.5688  162.5554 N.am    1  UNL1       -0.2485
     11 C         138.8405  142.4328  161.3101 C.2     1  UNL1        0.3059
     12 O         140.0272  141.5154  161.2929 O.2     1  UNL1       -0.2524
     13 N         138.4788  143.2142  160.0818 N.am    1  UNL1       -0.2885
     14 H         137.2368  143.1709  162.5667 H       1  UNL1        0.1583
     15 H         137.7000  143.8163  160.0930 H       1  UNL1        0.1510
     16 C         138.5371  140.0017  165.4196 C.ar    1  UNL1        0.0803
     17 S         137.9479  140.3842  164.0942 S.2     1  UNL1       -0.0488
     18 C         138.3773  141.7875  163.7837 C.ar    1  UNL1        0.1664
     19 N         139.2319  142.2722  164.9171 N.ar    1  UNL1       -0.2282
     20 C         139.3307  141.1685  165.9282 C.ar    1  UNL1        0.0701
     21 C         140.0898  141.2223  167.2208 C.3     1  UNL1        0.0528
     22 C         138.7782  137.4148  165.4302 C.3     1  UNL1        0.0779
     23 C         138.3633  138.6837  166.1143 C.2     1  UNL1        0.1807
     24 O         137.7746  138.6345  167.4930 O.2     1  UNL1       -0.2908
     25 C         140.6212  145.2246  159.4747 C.3     1  UNL1        0.0738
     26 N         141.1637  144.9600  160.8479 N.3     1  UNL1       -0.2726
     27 C         140.5252  145.6030  162.0433 C.3     1  UNL1        0.0721
     28 C         141.0677  145.3384  163.4165 C.3     1  UNL1        0.0174
     29 C         142.2487  144.4309  163.5943 C.3     1  UNL1        0.0031
     30 C         142.8872  143.7880  162.3990 C.3     1  UNL1        0.0204
     31 C         142.3447  144.0525  161.0258 C.3     1  UNL1        0.0724
     32 C         144.0682  142.8804  162.5768 C.3     1  UNL1        0.0277
     33 C         143.9292  141.6154  163.3707 C.ar    1  UNL1       -0.0220
     34 C         145.1443  140.8007  163.7025 C.ar    1  UNL1       -0.0020
     35 C         145.0052  139.5357  164.4965 C.ar    1  UNL1        0.0293
     36 C         143.6510  139.0853  164.9587 C.ar    1  UNL1        0.1401
     37 F         143.5120  137.8203  165.7526 F       1  UNL1       -0.2042
     38 C         142.4360  139.9000  164.6268 C.ar    1  UNL1        0.0293
     39 C         142.5751  141.1650  163.8329 C.ar    1  UNL1       -0.0020
@<TRIPOS>BOND
     1    22    23    1
     2    23    24    2
     3    23    16    1
     4    16    17   ar
     5    17    18   ar
     6    18    10    1
     7    10    11   am
     8    11    12    2
     9    11    13   am
    10     1    13    1
    11     1     2    1
    12     2     3    1
    13     3     4   am
    14     4     5    1
    15     4     6    2
    16     3     7    1
    17     7     8    1
    18     8     9    1
    19     9    25    1
    20    25    26    1
    21    26    27    1
    22    27    28    1
    23    28    29    1
    24    29    30    1
    25    30    32    1
    26    32    33    1
    27    33    34   ar
    28    34    35   ar
    29    35    36   ar
    30    36    37    1
    31    36    38   ar
    32    38    39   ar
    33    30    31    1
    34    18    19   ar
    35    19    20   ar
    36    20    21    1
    37    20    16   ar
    38     9     1    1
    39    31    26    1
    40    39    33   ar
    41    10    14    1
    42    13    15    1
@<TRIPOS>MOLECULE
*****
 39 42 0 0 0
SMALL
GASTEIGER

@<TRIPOS>ATOM
      1 C         141.1647  139.6092  167.0408 C.3     1  UNL1        0.0942
      2 C         142.0272  140.5010  167.8838 C.3     1  UNL1        0.1129
      3 N         141.4316  141.2411  169.0446 N.am    1  UNL1       -0.2778
      4 C         142.2942  142.1330  169.8876 C.2     1  UNL1        0.2262
      5 C         143.7522  142.2847  169.5698 C.3     1  UNL1        0.0948
      6 O         141.6986  142.8731  171.0484 O.2     1  UNL1       -0.2749
      7 C         139.9736  141.0893  169.3624 C.3     1  UNL1        0.0936
      8 C         139.1111  140.1975  168.5194 C.3     1  UNL1        0.0246
      9 C         139.7066  139.4574  167.3586 C.3     1  UNL1        0.0374
     10 N         142.6548  138.8545  163.4408 N.am    1  UNL1       -0.2485
     11 C         142.0592  139.5946  164.6016 C.2     1  UNL1        0.3059
     12 O         141.7627  141.0603  164.4842 O.2     1  UNL1       -0.2524
     13 N         141.7602  138.8690  165.8799 N.am    1  UNL1       -0.2885
     14 H         142.8494  137.8925  163.5178 H       1  UNL1        0.1583
     15 H         141.9549  137.9070  165.9570 H       1  UNL1        0.1510
     16 C         143.0688  140.1554  159.8073 C.ar    1  UNL1        0.0803
     17 S         142.5713  139.1308  160.7834 S.2     1  UNL1       -0.0488
     18 C         142.9537  139.5801  162.1624 C.ar    1  UNL1        0.1664
     19 N         143.6877  140.8824  162.0387 N.ar    1  UNL1       -0.2282
     20 C         143.7589  141.2380  160.5832 C.ar    1  UNL1        0.0701
     21 C         144.4064  142.4613  160.0051 C.3     1  UNL1        0.0528
     22 C         141.7890  140.8625  157.6598 C.3     1  UNL1        0.0779
     23 C         142.9051  140.1061  158.3171 C.2     1  UNL1        0.1807
     24 O         143.8575  139.3005  157.4843 O.2     1  UNL1       -0.2908
     25 C         138.8441  138.5655  166.5156 C.3     1  UNL1        0.0738
     26 N         138.5942  138.9062  165.0763 N.3     1  UNL1       -0.2726
     27 C         138.8241  137.8757  164.0108 C.3     1  UNL1        0.0721
     28 C         138.5742  138.2164  162.5716 C.3     1  UNL1        0.0174
     29 C         138.0945  139.5876  162.1978 C.3     1  UNL1        0.0031
     30 C         137.8647  140.6181  163.2633 C.3     1  UNL1        0.0204
     31 C         138.1146  140.2774  164.7025 C.3     1  UNL1        0.0724
     32 C         137.3850  141.9894  162.8895 C.3     1  UNL1        0.0277
     33 C         138.3137  142.9481  162.2051 C.ar    1  UNL1       -0.0220
     34 C         138.7975  142.6602  160.8147 C.ar    1  UNL1       -0.0020
     35 C         139.7262  143.6189  160.1302 C.ar    1  UNL1        0.0293
     36 C         140.1709  144.8655  160.8361 C.ar    1  UNL1        0.1401
     37 F         141.0996  145.8242  160.1516 F       1  UNL1       -0.2042
     38 C         139.6871  145.1533  162.2264 C.ar    1  UNL1        0.0293
     39 C         138.7584  144.1946  162.9109 C.ar    1  UNL1       -0.0020
@<TRIPOS>BOND
     1    22    23    1
     2    23    24    2
     3    23    16    1
     4    16    17   ar
     5    17    18   ar
     6    18    10    1
     7    10    11   am
     8    11    12    2
     9    11    13   am
    10     1    13    1
    11     1     2    1
    12     2     3    1
    13     3     4   am
    14     4     5    1
    15     4     6    2
    16     3     7    1
    17     7     8    1
    18     8     9    1
    19     9    25    1
    20    25    26    1
    21    26    27    1
    22    27    28    1
    23    28    29    1
    24    29    30    1
    25    30    32    1
    26    32    33    1
    27    33    34   ar
    28    34    35   ar
    29    35    36   ar
    30    36    37    1
    31    36    38   ar
    32    38    39   ar
    33    30    31    1
    34    18    19   ar
    35    19    20   ar
    36    20    21    1
    37    20    16   ar
    38     9     1    1
    39    31    26    1
    40    39    33   ar
    41    10    14    1
    42    13    15    1
