@<TRIPOS>MOLECULE
*****
 34 36 0 0 0
SMALL
GASTEIGER

@<TRIPOS>ATOM
      1 N         139.8811  142.1032  160.2004 N.3     1  UNL1       -0.1591
      2 C         140.6161  140.9042  160.7220 C.3     1  UNL1        0.0991
      3 C         140.0227  140.0836  161.8284 C.3     1  UNL1        0.0627
      4 C         138.6942  140.4619  162.4132 C.3     1  UNL1        0.1688
      5 C         137.9592  141.6609  161.8916 C.3     1  UNL1        0.0627
      6 C         138.5526  142.4815  160.7852 C.3     1  UNL1        0.0991
      7 S         140.4746  142.9240  159.0939 S.O2    1  UNL1        0.0459
      8 O         139.3419  143.9004  159.2107 O.2     1  UNL1       -0.1572
      9 O         141.6072  141.9475  158.9770 O.2     1  UNL1       -0.1572
     10 C         141.0679  143.7447  157.9874 C.3     1  UNL1        0.1958
     11 C         139.6134  143.1207  156.7527 C.3     1  UNL1        0.0310
     12 C         140.1719  144.4833  157.0380 C.3     1  UNL1        0.1509
     13 N         139.1590  144.9371  156.0289 N.am    1  UNL1       -0.2825
     14 C         139.2789  146.4258  155.8890 C.2     1  UNL1        0.3068
     15 O         138.4562  147.2955  154.9852 O.2     1  UNL1       -0.2524
     16 N         140.3658  146.8920  156.8116 N.am    1  UNL1       -0.2383
     17 C         140.9177  145.6915  157.5217 C.2     1  UNL1        0.2469
     18 O         142.0216  145.6981  158.5373 O.2     1  UNL1       -0.2729
     19 H         138.5266  144.3593  155.5436 H       1  UNL1        0.1514
     20 H         140.6645  147.8226  156.9303 H       1  UNL1        0.1591
     21 O         138.1007  139.6411  163.5197 O.3     1  UNL1       -0.4791
     22 C         138.5809  139.8232  164.9291 C.ar    1  UNL1        0.1386
     23 C         138.0656  138.9299  166.0183 C.ar    1  UNL1        0.0400
     24 C         138.5458  139.1120  167.4277 C.ar    1  UNL1        0.0402
     25 C         139.5413  140.1874  167.7478 C.ar    1  UNL1        0.1444
     26 C         140.0566  141.0807  166.6585 C.ar    1  UNL1        0.0402
     27 C         139.5764  140.8986  165.2492 C.ar    1  UNL1        0.0400
     28 O         140.0214  140.3694  169.1571 O.3     1  UNL1       -0.4263
     29 C         140.0403  141.7374  169.7722 C.3     1  UNL1        0.4723
     30 F         141.4614  141.9179  169.3272 F       1  UNL1       -0.1579
     31 F         138.6193  141.5569  170.2172 F       1  UNL1       -0.1579
     32 C         140.0592  143.1054  170.3873 C.3     1  UNL1        0.4202
     33 F         138.9876  143.5064  171.3572 F       1  UNL1       -0.1876
     34 F         141.1497  144.0723  170.0324 F       1  UNL1       -0.1876
@<TRIPOS>BOND
     1    12    11    1
     2    12    10    1
     3    10     7    1
     4     7     8    2
     5     7     9    2
     6     7     1    1
     7     1     2    1
     8     2     3    1
     9     3     4    1
    10     4    21    1
    11    21    22    1
    12    22    23   ar
    13    23    24   ar
    14    24    25   ar
    15    25    28    1
    16    28    29    1
    17    29    30    1
    18    29    31    1
    19    29    32    1
    20    32    33    1
    21    32    34    1
    22    25    26   ar
    23    26    27   ar
    24     4     5    1
    25     5     6    1
    26    12    13    1
    27    13    14   am
    28    14    15    2
    29    14    16   am
    30    16    17   am
    31    17    18    2
    32    17    12    1
    33     6     1    1
    34    27    22   ar
    35    13    19    1
    36    16    20    1
@<TRIPOS>MOLECULE
*****
 34 36 0 0 0
SMALL
GASTEIGER

@<TRIPOS>ATOM
      1 N         142.3918  138.9387  159.8085 N.3     1  UNL1       -0.1591
      2 C         140.9362  138.7172  160.0951 C.3     1  UNL1        0.0991
      3 C         140.5116  138.1251  161.4062 C.3     1  UNL1        0.0627
      4 C         141.5426  137.7545  162.4308 C.3     1  UNL1        0.1688
      5 C         142.9982  137.9761  162.1442 C.3     1  UNL1        0.0627
      6 C         143.4228  138.5682  160.8331 C.3     1  UNL1        0.0991
      7 S         142.8164  139.5309  158.4973 S.O2    1  UNL1        0.0459
      8 O         141.4234  139.3588  157.9685 O.2     1  UNL1       -0.1572
      9 O         144.2095  139.7030  159.0261 O.2     1  UNL1       -0.1572
     10 C         143.2410  140.1229  157.1862 C.3     1  UNL1        0.1958
     11 C         143.3269  141.9573  157.9970 C.3     1  UNL1        0.0310
     12 C         144.2972  141.1875  157.1509 C.3     1  UNL1        0.1509
     13 N         145.1505  142.4129  157.2925 N.am    1  UNL1       -0.2825
     14 C         146.4274  142.1779  156.5412 C.2     1  UNL1        0.3068
     15 O         147.5682  143.1440  156.4176 O.2     1  UNL1       -0.2524
     16 N         146.3632  140.8072  155.9354 N.am    1  UNL1       -0.2383
     17 C         145.0467  140.1951  156.3121 C.2     1  UNL1        0.2469
     18 O         144.5643  138.8302  155.9192 O.2     1  UNL1       -0.2729
     19 H         144.9141  143.2283  157.7910 H       1  UNL1        0.1514
     20 H         147.0624  140.3837  155.3867 H       1  UNL1        0.1591
     21 O         141.1179  137.1624  163.7419 O.3     1  UNL1       -0.4791
     22 C         140.7333  138.0598  164.8806 C.ar    1  UNL1        0.1386
     23 C         139.2878  138.2387  165.2393 C.ar    1  UNL1        0.0400
     24 C         138.9031  139.1361  166.3781 C.ar    1  UNL1        0.0402
     25 C         139.9639  139.8546  167.1581 C.ar    1  UNL1        0.1444
     26 C         141.4094  139.6757  166.7994 C.ar    1  UNL1        0.0402
     27 C         141.7941  138.7783  165.6607 C.ar    1  UNL1        0.0400
     28 O         139.5792  140.7520  168.2968 O.3     1  UNL1       -0.4263
     29 C         140.5111  141.8397  168.7424 C.3     1  UNL1        0.4723
     30 F         140.8701  141.0349  169.9562 F       1  UNL1       -0.1579
     31 F         140.1521  142.6445  167.5286 F       1  UNL1       -0.1579
     32 C         141.4430  142.9274  169.1880 C.3     1  UNL1        0.4202
     33 F         142.9175  142.7978  168.9453 F       1  UNL1       -0.1876
     34 F         140.9002  144.1447  169.8763 F       1  UNL1       -0.1876
@<TRIPOS>BOND
     1    12    11    1
     2    12    10    1
     3    10     7    1
     4     7     8    2
     5     7     9    2
     6     7     1    1
     7     1     2    1
     8     2     3    1
     9     3     4    1
    10     4    21    1
    11    21    22    1
    12    22    23   ar
    13    23    24   ar
    14    24    25   ar
    15    25    28    1
    16    28    29    1
    17    29    30    1
    18    29    31    1
    19    29    32    1
    20    32    33    1
    21    32    34    1
    22    25    26   ar
    23    26    27   ar
    24     4     5    1
    25     5     6    1
    26    12    13    1
    27    13    14   am
    28    14    15    2
    29    14    16   am
    30    16    17   am
    31    17    18    2
    32    17    12    1
    33     6     1    1
    34    27    22   ar
    35    13    19    1
    36    16    20    1
@<TRIPOS>MOLECULE
*****
 34 36 0 0 0
SMALL
GASTEIGER

@<TRIPOS>ATOM
      1 N         138.7480  139.7596  160.6071 N.3     1  UNL1       -0.1591
      2 C         139.2361  138.4072  161.0346 C.3     1  UNL1        0.0991
      3 C         139.1549  138.0019  162.4765 C.3     1  UNL1        0.0627
      4 C         138.5856  138.9489  163.4909 C.3     1  UNL1        0.1688
      5 C         138.0975  140.3013  163.0634 C.3     1  UNL1        0.0627
      6 C         138.1787  140.7066  161.6215 C.3     1  UNL1        0.0991
      7 S         138.8291  140.1650  159.1651 S.O2    1  UNL1        0.0459
      8 O         140.3155  140.3212  159.2928 O.2     1  UNL1       -0.1572
      9 O         137.3428  140.0088  159.0375 O.2     1  UNL1       -0.1572
     10 C         138.9103  140.5703  157.7233 C.3     1  UNL1        0.1958
     11 C         137.9263  142.2986  157.9962 C.3     1  UNL1        0.0310
     12 C         137.7120  141.1614  157.0417 C.3     1  UNL1        0.1509
     13 N         136.5584  141.9903  156.5597 N.am    1  UNL1       -0.2825
     14 C         135.8817  141.2417  155.4498 C.2     1  UNL1        0.3068
     15 O         134.6805  141.7036  154.6792 O.2     1  UNL1       -0.2524
     16 N         136.6170  139.9504  155.2459 N.am    1  UNL1       -0.2383
     17 C         137.7482  139.9007  156.2297 C.2     1  UNL1        0.2469
     18 O         138.7412  138.7861  156.3759 O.2     1  UNL1       -0.2729
     19 H         136.2922  142.8709  156.9103 H       1  UNL1        0.1514
     20 H         136.3960  139.2571  154.5828 H       1  UNL1        0.1591
     21 O         138.5044  138.5436  164.9328 O.3     1  UNL1       -0.4791
     22 C         139.5392  139.0244  165.9064 C.ar    1  UNL1        0.1386
     23 C         139.1174  139.6036  167.2242 C.ar    1  UNL1        0.0400
     24 C         140.1522  140.0844  168.1979 C.ar    1  UNL1        0.0402
     25 C         141.6089  139.9860  167.8537 C.ar    1  UNL1        0.1444
     26 C         142.0307  139.4068  166.5360 C.ar    1  UNL1        0.0402
     27 C         140.9959  138.9260  165.5623 C.ar    1  UNL1        0.0400
     28 O         142.6436  140.4668  168.8274 O.3     1  UNL1       -0.4263
     29 C         142.4952  141.8107  169.4770 C.3     1  UNL1        0.4723
     30 F         142.9615  142.4726  168.2143 F       1  UNL1       -0.1579
     31 F         142.0288  141.1488  170.7397 F       1  UNL1       -0.1579
     32 C         142.3467  143.1546  170.1266 C.3     1  UNL1        0.4202
     33 F         143.4394  143.6878  171.0049 F       1  UNL1       -0.1876
     34 F         141.1055  143.9652  169.8977 F       1  UNL1       -0.1876
@<TRIPOS>BOND
     1    12    11    1
     2    12    10    1
     3    10     7    1
     4     7     8    2
     5     7     9    2
     6     7     1    1
     7     1     2    1
     8     2     3    1
     9     3     4    1
    10     4    21    1
    11    21    22    1
    12    22    23   ar
    13    23    24   ar
    14    24    25   ar
    15    25    28    1
    16    28    29    1
    17    29    30    1
    18    29    31    1
    19    29    32    1
    20    32    33    1
    21    32    34    1
    22    25    26   ar
    23    26    27   ar
    24     4     5    1
    25     5     6    1
    26    12    13    1
    27    13    14   am
    28    14    15    2
    29    14    16   am
    30    16    17   am
    31    17    18    2
    32    17    12    1
    33     6     1    1
    34    27    22   ar
    35    13    19    1
    36    16    20    1
@<TRIPOS>MOLECULE
*****
 34 36 0 0 0
SMALL
GASTEIGER

@<TRIPOS>ATOM
      1 N         141.5107  138.9527  165.5499 N.3     1  UNL1       -0.1591
      2 C         140.0145  138.9113  165.4525 C.3     1  UNL1        0.0991
      3 C         139.3580  138.4266  164.1939 C.3     1  UNL1        0.0627
      4 C         140.1977  137.9833  163.0327 C.3     1  UNL1        0.1688
      5 C         141.6940  138.0246  163.1301 C.3     1  UNL1        0.0627
      6 C         142.3505  138.5093  164.3887 C.3     1  UNL1        0.0991
      7 S         142.1673  139.4374  166.8085 S.O2    1  UNL1        0.0459
      8 O         140.8206  139.5981  167.4491 O.2     1  UNL1       -0.1572
      9 O         143.5141  139.2767  166.1679 O.2     1  UNL1       -0.1572
     10 C         142.8238  139.9221  168.0670 C.3     1  UNL1        0.1958
     11 C         142.0805  141.7680  167.8030 C.3     1  UNL1        0.0310
     12 C         142.0872  140.8487  168.9883 C.3     1  UNL1        0.1509
     13 N         141.3492  141.9675  169.6618 N.am    1  UNL1       -0.2825
     14 C         141.0537  141.5459  171.0707 C.2     1  UNL1        0.3068
     15 O         140.3299  142.3606  172.1014 O.2     1  UNL1       -0.2524
     16 N         141.6091  140.1666  171.2680 N.am    1  UNL1       -0.2383
     17 C         142.2479  139.7356  169.9810 C.2     1  UNL1        0.2469
     18 O         142.9278  138.4223  169.7306 O.2     1  UNL1       -0.2729
     19 H         141.1021  142.8275  169.2512 H       1  UNL1        0.1514
     20 H         141.5626  139.6370  172.0966 H       1  UNL1        0.1591
     21 O         139.5412  137.4986  161.7741 O.3     1  UNL1       -0.4791
     22 C         139.2963  138.4508  160.6413 C.ar    1  UNL1        0.1386
     23 C         140.2556  138.5089  159.4897 C.ar    1  UNL1        0.0400
     24 C         140.0107  139.4611  158.3568 C.ar    1  UNL1        0.0402
     25 C         138.8065  140.3552  158.3756 C.ar    1  UNL1        0.1444
     26 C         137.8471  140.2971  159.5273 C.ar    1  UNL1        0.0402
     27 C         138.0920  139.3449  160.6601 C.ar    1  UNL1        0.0400
     28 O         138.5616  141.3074  157.2428 O.3     1  UNL1       -0.4263
     29 C         137.2285  141.3283  156.5554 C.3     1  UNL1        0.4723
     30 F         137.5278  139.9961  155.9344 F       1  UNL1       -0.1579
     31 F         136.9292  142.6605  157.1764 F       1  UNL1       -0.1579
     32 C         135.8954  141.3492  155.8681 C.3     1  UNL1        0.4202
     33 F         135.7583  141.9855  154.5167 F       1  UNL1       -0.1876
     34 F         134.6994  140.7338  156.5322 F       1  UNL1       -0.1876
@<TRIPOS>BOND
     1    12    11    1
     2    12    10    1
     3    10     7    1
     4     7     8    2
     5     7     9    2
     6     7     1    1
     7     1     2    1
     8     2     3    1
     9     3     4    1
    10     4    21    1
    11    21    22    1
    12    22    23   ar
    13    23    24   ar
    14    24    25   ar
    15    25    28    1
    16    28    29    1
    17    29    30    1
    18    29    31    1
    19    29    32    1
    20    32    33    1
    21    32    34    1
    22    25    26   ar
    23    26    27   ar
    24     4     5    1
    25     5     6    1
    26    12    13    1
    27    13    14   am
    28    14    15    2
    29    14    16   am
    30    16    17   am
    31    17    18    2
    32    17    12    1
    33     6     1    1
    34    27    22   ar
    35    13    19    1
    36    16    20    1
@<TRIPOS>MOLECULE
*****
 34 36 0 0 0
SMALL
GASTEIGER

@<TRIPOS>ATOM
      1 N         139.4106  140.3134  166.5999 N.3     1  UNL1       -0.1591
      2 C         139.1272  141.3917  165.5965 C.3     1  UNL1        0.0991
      3 C         138.5869  141.0341  164.2437 C.3     1  UNL1        0.0627
      4 C         138.3301  139.5982  163.8943 C.3     1  UNL1        0.1688
      5 C         138.6135  138.5199  164.8977 C.3     1  UNL1        0.0627
      6 C         139.1537  138.8775  166.2505 C.3     1  UNL1        0.0991
      7 S         139.9508  140.6710  167.9529 S.O2    1  UNL1        0.0459
      8 O         139.0460  139.6540  168.5829 O.2     1  UNL1       -0.1572
      9 O         140.8556  141.6880  167.3228 O.2     1  UNL1       -0.1572
     10 C         140.4910  141.0285  169.3057 C.3     1  UNL1        0.1958
     11 C         142.1702  140.0209  168.8646 C.3     1  UNL1        0.0310
     12 C         141.9414  141.3757  169.4664 C.3     1  UNL1        0.1509
     13 N         143.4396  141.4396  169.5013 N.am    1  UNL1       -0.2825
     14 C         143.8336  142.7614  170.0910 C.2     1  UNL1        0.3068
     15 O         145.2361  143.2453  170.3123 O.2     1  UNL1       -0.2524
     16 N         142.5788  143.5143  170.4206 N.am    1  UNL1       -0.2383
     17 C         141.4094  142.6579  170.0346 C.2     1  UNL1        0.2469
     18 O         139.9621  143.0202  170.1895 O.2     1  UNL1       -0.2729
     19 H         144.0562  140.7373  169.1915 H       1  UNL1        0.1514
     20 H         142.5312  144.4129  170.8202 H       1  UNL1        0.1591
     21 O         137.7898  139.2406  162.5413 O.3     1  UNL1       -0.4791
     22 C         138.7142  139.1559  161.3631 C.ar    1  UNL1        0.1386
     23 C         138.2882  139.7069  160.0345 C.ar    1  UNL1        0.0400
     24 C         139.2127  139.6222  158.8562 C.ar    1  UNL1        0.0402
     25 C         140.5629  138.9865  159.0065 C.ar    1  UNL1        0.1444
     26 C         140.9888  138.4355  160.3350 C.ar    1  UNL1        0.0402
     27 C         140.0645  138.5202  161.5133 C.ar    1  UNL1        0.0400
     28 O         141.4873  138.9018  157.8282 O.3     1  UNL1       -0.4263
     29 C         141.8276  137.5661  157.2364 C.3     1  UNL1        0.4723
     30 F         140.4519  137.4777  156.6450 F       1  UNL1       -0.1579
     31 F         143.2032  137.6546  157.8278 F       1  UNL1       -0.1579
     32 C         142.1679  136.2305  156.6446 C.3     1  UNL1        0.4202
     33 F         141.1542  135.4960  155.8183 F       1  UNL1       -0.1876
     34 F         143.5221  135.6293  156.8792 F       1  UNL1       -0.1876
@<TRIPOS>BOND
     1    12    11    1
     2    12    10    1
     3    10     7    1
     4     7     8    2
     5     7     9    2
     6     7     1    1
     7     1     2    1
     8     2     3    1
     9     3     4    1
    10     4    21    1
    11    21    22    1
    12    22    23   ar
    13    23    24   ar
    14    24    25   ar
    15    25    28    1
    16    28    29    1
    17    29    30    1
    18    29    31    1
    19    29    32    1
    20    32    33    1
    21    32    34    1
    22    25    26   ar
    23    26    27   ar
    24     4     5    1
    25     5     6    1
    26    12    13    1
    27    13    14   am
    28    14    15    2
    29    14    16   am
    30    16    17   am
    31    17    18    2
    32    17    12    1
    33     6     1    1
    34    27    22   ar
    35    13    19    1
    36    16    20    1
@<TRIPOS>MOLECULE
*****
 34 36 0 0 0
SMALL
GASTEIGER

@<TRIPOS>ATOM
      1 N         139.8303  139.8321  167.2212 N.3     1  UNL1       -0.1591
      2 C         138.5078  139.1270  167.1603 C.3     1  UNL1        0.0991
      3 C         138.0286  138.5423  165.8648 C.3     1  UNL1        0.0627
      4 C         138.8719  138.6627  164.6302 C.3     1  UNL1        0.1688
      5 C         140.1945  139.3677  164.6911 C.3     1  UNL1        0.0627
      6 C         140.6737  139.9524  165.9866 C.3     1  UNL1        0.0991
      7 S         140.3096  140.4168  168.5168 S.O2    1  UNL1        0.0459
      8 O         139.2619  139.6381  169.2557 O.2     1  UNL1       -0.1572
      9 O         141.3572  141.1955  167.7779 O.2     1  UNL1       -0.1572
     10 C         140.7888  141.0015  169.8123 C.3     1  UNL1        0.1958
     11 C         142.5095  139.9795  169.6560 C.3     1  UNL1        0.0310
     12 C         142.2216  141.4194  169.9621 C.3     1  UNL1        0.1509
     13 N         143.7145  141.5364  170.0479 N.am    1  UNL1       -0.2825
     14 C         144.0498  142.9612  170.3757 C.2     1  UNL1        0.3068
     15 O         145.4287  143.5237  170.5552 O.2     1  UNL1       -0.2524
     16 N         142.7640  143.7249  170.4926 N.am    1  UNL1       -0.2383
     17 C         141.6341  142.7720  170.2370 C.2     1  UNL1        0.2469
     18 O         140.1733  143.1120  170.2533 O.2     1  UNL1       -0.2729
     19 H         144.3609  140.8062  169.9127 H       1  UNL1        0.1514
     20 H         142.6770  144.6832  170.7005 H       1  UNL1        0.1591
     21 O         138.3927  138.0780  163.3346 O.3     1  UNL1       -0.4791
     22 C         138.6221  138.8152  162.0486 C.ar    1  UNL1        0.1386
     23 C         139.5723  138.2639  161.0272 C.ar    1  UNL1        0.0400
     24 C         139.8017  139.0013  159.7412 C.ar    1  UNL1        0.0402
     25 C         139.0809  140.2898  159.4766 C.ar    1  UNL1        0.1444
     26 C         138.1307  140.8411  160.4979 C.ar    1  UNL1        0.0402
     27 C         137.9012  140.1038  161.7839 C.ar    1  UNL1        0.0400
     28 O         139.3103  141.0271  158.1906 O.3     1  UNL1       -0.4263
     29 C         138.1467  141.5972  157.4351 C.3     1  UNL1        0.4723
     30 F         137.6672  140.2098  157.1265 F       1  UNL1       -0.1579
     31 F         138.6261  142.9846  157.7437 F       1  UNL1       -0.1579
     32 C         136.9830  142.1674  156.6795 C.3     1  UNL1        0.4202
     33 F         137.0254  143.5868  156.1964 F       1  UNL1       -0.1876
     34 F         135.7769  141.3181  156.4072 F       1  UNL1       -0.1876
@<TRIPOS>BOND
     1    12    11    1
     2    12    10    1
     3    10     7    1
     4     7     8    2
     5     7     9    2
     6     7     1    1
     7     1     2    1
     8     2     3    1
     9     3     4    1
    10     4    21    1
    11    21    22    1
    12    22    23   ar
    13    23    24   ar
    14    24    25   ar
    15    25    28    1
    16    28    29    1
    17    29    30    1
    18    29    31    1
    19    29    32    1
    20    32    33    1
    21    32    34    1
    22    25    26   ar
    23    26    27   ar
    24     4     5    1
    25     5     6    1
    26    12    13    1
    27    13    14   am
    28    14    15    2
    29    14    16   am
    30    16    17   am
    31    17    18    2
    32    17    12    1
    33     6     1    1
    34    27    22   ar
    35    13    19    1
    36    16    20    1
@<TRIPOS>MOLECULE
*****
 34 36 0 0 0
SMALL
GASTEIGER

@<TRIPOS>ATOM
      1 N         139.8842  139.5311  159.8046 N.3     1  UNL1       -0.1591
      2 C         139.8990  138.5437  160.9336 C.3     1  UNL1        0.0991
      3 C         139.1441  138.8367  162.1962 C.3     1  UNL1        0.0627
      4 C         138.3744  140.1172  162.3298 C.3     1  UNL1        0.1688
      5 C         138.3596  141.1047  161.2009 C.3     1  UNL1        0.0627
      6 C         139.1145  140.8116  159.9383 C.3     1  UNL1        0.0991
      7 S         140.6391  139.2381  158.5419 S.O2    1  UNL1        0.0459
      8 O         141.2791  138.0518  159.1999 O.2     1  UNL1       -0.1572
      9 O         139.9991  140.4244  157.8840 O.2     1  UNL1       -0.1572
     10 C         141.3940  138.9451  157.2793 C.3     1  UNL1        0.1958
     11 C         140.0038  137.5562  156.8692 C.3     1  UNL1        0.0310
     12 C         141.5010  137.5348  156.7796 C.3     1  UNL1        0.1509
     13 N         141.2950  136.1290  156.2986 N.am    1  UNL1       -0.2825
     14 C         142.6426  135.5337  156.0162 C.2     1  UNL1        0.3068
     15 O         142.9052  134.1444  155.5153 O.2     1  UNL1       -0.2524
     16 N         143.6813  136.5715  156.3226 N.am    1  UNL1       -0.2383
     17 C         142.9758  137.8083  156.7944 C.2     1  UNL1        0.2469
     18 O         143.6302  139.0929  157.2084 O.2     1  UNL1       -0.2729
     19 H         140.4277  135.6766  156.1878 H       1  UNL1        0.1514
     20 H         144.6552  136.4604  156.2303 H       1  UNL1        0.1591
     21 O         137.6195  140.4102  163.5926 O.3     1  UNL1       -0.4791
     22 C         138.3495  140.4958  164.9001 C.ar    1  UNL1        0.1386
     23 C         139.2351  141.6714  165.1891 C.ar    1  UNL1        0.0400
     24 C         139.9651  141.7570  166.4967 C.ar    1  UNL1        0.0402
     25 C         139.8095  140.6669  167.5153 C.ar    1  UNL1        0.1444
     26 C         138.9239  139.4913  167.2263 C.ar    1  UNL1        0.0402
     27 C         138.1939  139.4057  165.9187 C.ar    1  UNL1        0.0400
     28 O         140.5395  140.7525  168.8228 O.3     1  UNL1       -0.4263
     29 C         140.9324  142.0902  169.3763 C.3     1  UNL1        0.4723
     30 F         142.3392  141.8727  168.9034 F       1  UNL1       -0.1579
     31 F         139.5256  142.3076  169.8492 F       1  UNL1       -0.1579
     32 C         141.3253  143.4278  169.9298 C.3     1  UNL1        0.4202
     33 F         142.6970  143.6291  170.5023 F       1  UNL1       -0.1876
     34 F         140.3463  144.5642  169.9108 F       1  UNL1       -0.1876
@<TRIPOS>BOND
     1    12    11    1
     2    12    10    1
     3    10     7    1
     4     7     8    2
     5     7     9    2
     6     7     1    1
     7     1     2    1
     8     2     3    1
     9     3     4    1
    10     4    21    1
    11    21    22    1
    12    22    23   ar
    13    23    24   ar
    14    24    25   ar
    15    25    28    1
    16    28    29    1
    17    29    30    1
    18    29    31    1
    19    29    32    1
    20    32    33    1
    21    32    34    1
    22    25    26   ar
    23    26    27   ar
    24     4     5    1
    25     5     6    1
    26    12    13    1
    27    13    14   am
    28    14    15    2
    29    14    16   am
    30    16    17   am
    31    17    18    2
    32    17    12    1
    33     6     1    1
    34    27    22   ar
    35    13    19    1
    36    16    20    1
@<TRIPOS>MOLECULE
*****
 34 36 0 0 0
SMALL
GASTEIGER

@<TRIPOS>ATOM
      1 N         139.3121  138.9813  160.3523 N.3     1  UNL1       -0.1591
      2 C         140.1222  138.2412  161.3750 C.3     1  UNL1        0.0991
      3 C         139.7423  138.3083  162.8245 C.3     1  UNL1        0.0627
      4 C         138.5522  139.1155  163.2513 C.3     1  UNL1        0.1688
      5 C         137.7421  139.8556  162.2286 C.3     1  UNL1        0.0627
      6 C         138.1221  139.7885  160.7791 C.3     1  UNL1        0.0991
      7 S         139.6921  138.9142  158.9028 S.O2    1  UNL1        0.0459
      8 O         140.9419  138.1680  159.2649 O.2     1  UNL1       -0.1572
      9 O         138.4423  139.6603  158.5406 O.2     1  UNL1       -0.1572
     10 C         140.0721  138.8470  157.4533 C.3     1  UNL1        0.1958
     11 C         141.6719  140.0101  157.7959 C.3     1  UNL1        0.0310
     12 C         141.5136  138.7119  157.0613 C.3     1  UNL1        0.1509
     13 N         142.9883  138.8482  156.8229 N.am    1  UNL1       -0.2825
     14 C         143.4400  137.6624  156.0229 C.2     1  UNL1        0.3068
     15 O         144.8412  137.3930  155.5601 O.2     1  UNL1       -0.2524
     16 N         142.2445  136.7933  155.7668 N.am    1  UNL1       -0.2383
     17 C         141.0539  137.4420  156.4086 C.2     1  UNL1        0.2469
     18 O         139.6502  136.9134  156.3993 O.2     1  UNL1       -0.2729
     19 H         143.5594  139.5862  157.1365 H       1  UNL1        0.1514
     20 H         142.2417  135.9460  155.2656 H       1  UNL1        0.1591
     21 O         138.1722  139.1826  164.7009 O.3     1  UNL1       -0.4791
     22 C         138.9106  140.1020  165.6280 C.ar    1  UNL1        0.1386
     23 C         139.2166  139.6659  167.0302 C.ar    1  UNL1        0.0400
     24 C         139.9550  140.5853  167.9573 C.ar    1  UNL1        0.0402
     25 C         140.3874  141.9408  167.4822 C.ar    1  UNL1        0.1444
     26 C         140.0814  142.3768  166.0800 C.ar    1  UNL1        0.0402
     27 C         139.3430  141.4575  165.1529 C.ar    1  UNL1        0.0400
     28 O         141.1257  142.8601  168.4093 O.3     1  UNL1       -0.4263
     29 C         142.3497  142.3756  169.1284 C.3     1  UNL1        0.4723
     30 F         141.7036  142.6959  170.4437 F       1  UNL1       -0.1579
     31 F         142.9957  142.0553  167.8132 F       1  UNL1       -0.1579
     32 C         143.5736  141.8911  169.8476 C.3     1  UNL1        0.4202
     33 F         143.6034  140.5092  170.4302 F       1  UNL1       -0.1876
     34 F         144.7678  142.7885  169.9842 F       1  UNL1       -0.1876
@<TRIPOS>BOND
     1    12    11    1
     2    12    10    1
     3    10     7    1
     4     7     8    2
     5     7     9    2
     6     7     1    1
     7     1     2    1
     8     2     3    1
     9     3     4    1
    10     4    21    1
    11    21    22    1
    12    22    23   ar
    13    23    24   ar
    14    24    25   ar
    15    25    28    1
    16    28    29    1
    17    29    30    1
    18    29    31    1
    19    29    32    1
    20    32    33    1
    21    32    34    1
    22    25    26   ar
    23    26    27   ar
    24     4     5    1
    25     5     6    1
    26    12    13    1
    27    13    14   am
    28    14    15    2
    29    14    16   am
    30    16    17   am
    31    17    18    2
    32    17    12    1
    33     6     1    1
    34    27    22   ar
    35    13    19    1
    36    16    20    1
@<TRIPOS>MOLECULE
*****
 34 36 0 0 0
SMALL
GASTEIGER

@<TRIPOS>ATOM
      1 N         139.0330  139.4777  159.7190 N.3     1  UNL1       -0.1591
      2 C         138.5265  140.8698  159.9547 C.3     1  UNL1        0.0991
      3 C         137.9784  141.2510  161.2978 C.3     1  UNL1        0.0627
      4 C         137.9368  140.2402  162.4053 C.3     1  UNL1        0.1688
      5 C         138.4432  138.8482  162.1697 C.3     1  UNL1        0.0627
      6 C         138.9913  138.4669  160.8265 C.3     1  UNL1        0.0991
      7 S         139.5811  139.0964  158.3758 S.O2    1  UNL1        0.0459
      8 O         139.3580  140.4969  157.8872 O.2     1  UNL1       -0.1572
      9 O         139.8042  137.6959  158.8643 O.2     1  UNL1       -0.1572
     10 C         140.1292  138.7151  157.0326 C.3     1  UNL1        0.1958
     11 C         141.9925  138.6324  157.7749 C.3     1  UNL1        0.0310
     12 C         141.2055  137.6754  156.9293 C.3     1  UNL1        0.1509
     13 N         142.4464  136.8359  157.0029 N.am    1  UNL1       -0.2825
     14 C         142.2012  135.5773  156.2243 C.2     1  UNL1        0.3068
     15 O         143.1771  134.4542  156.0339 O.2     1  UNL1       -0.2524
     16 N         140.8089  135.6392  155.6697 N.am    1  UNL1       -0.2383
     17 C         140.1936  136.9358  156.1054 C.2     1  UNL1        0.2469
     18 O         138.8093  137.4097  155.7751 O.2     1  UNL1       -0.2729
     19 H         143.2760  137.0698  157.4786 H       1  UNL1        0.1514
     20 H         140.3752  134.9497  155.1167 H       1  UNL1        0.1591
     21 O         137.3886  140.6216  163.7486 O.3     1  UNL1       -0.4791
     22 C         138.2951  140.6685  164.9427 C.ar    1  UNL1        0.1386
     23 C         138.2724  139.5535  165.9459 C.ar    1  UNL1        0.0400
     24 C         139.1789  139.6005  167.1401 C.ar    1  UNL1        0.0402
     25 C         140.1082  140.7624  167.3311 C.ar    1  UNL1        0.1444
     26 C         140.1309  141.8773  166.3279 C.ar    1  UNL1        0.0402
     27 C         139.2244  141.8304  165.1338 C.ar    1  UNL1        0.0400
     28 O         141.0146  140.8093  168.5252 O.3     1  UNL1       -0.4263
     29 C         141.2533  142.1089  169.2351 C.3     1  UNL1        0.4723
     30 F         142.7082  142.0373  168.8771 F       1  UNL1       -0.1579
     31 F         139.7984  142.1806  169.5931 F       1  UNL1       -0.1579
     32 C         141.4920  143.4086  169.9449 C.3     1  UNL1        0.4202
     33 F         140.4113  144.4478  169.9905 F       1  UNL1       -0.1876
     34 F         142.8114  143.6690  170.6093 F       1  UNL1       -0.1876
@<TRIPOS>BOND
     1    12    11    1
     2    12    10    1
     3    10     7    1
     4     7     8    2
     5     7     9    2
     6     7     1    1
     7     1     2    1
     8     2     3    1
     9     3     4    1
    10     4    21    1
    11    21    22    1
    12    22    23   ar
    13    23    24   ar
    14    24    25   ar
    15    25    28    1
    16    28    29    1
    17    29    30    1
    18    29    31    1
    19    29    32    1
    20    32    33    1
    21    32    34    1
    22    25    26   ar
    23    26    27   ar
    24     4     5    1
    25     5     6    1
    26    12    13    1
    27    13    14   am
    28    14    15    2
    29    14    16   am
    30    16    17   am
    31    17    18    2
    32    17    12    1
    33     6     1    1
    34    27    22   ar
    35    13    19    1
    36    16    20    1
