@<TRIPOS>MOLECULE
*****
 30 33 0 0 0
SMALL
GASTEIGER

@<TRIPOS>ATOM
      1 C         140.0525  141.4694  161.2933 C.3     1  UNL1        0.0501
      2 C         140.6396  142.1834  162.4745 C.ar    1  UNL1        0.0391
      3 C         141.3603  143.4985  162.4410 C.ar    1  UNL1        0.0073
      4 C         141.7753  143.8355  163.8425 C.ar    1  UNL1        0.0157
      5 C         141.3111  142.7288  164.7423 C.ar    1  UNL1        0.0634
      6 N         140.6092  141.7077  163.8968 N.ar    1  UNL1       -0.3101
      7 C         139.9862  140.4344  164.3875 C.ar    1  UNL1        0.0638
      8 C         140.6497  139.1185  164.1079 C.ar    1  UNL1        0.0198
      9 C         140.0268  137.8452  164.5986 C.ar    1  UNL1        0.0311
     10 C         138.7402  137.8879  165.3688 C.ar    1  UNL1        0.1402
     11 F         138.1172  136.6146  165.8595 F       1  UNL1       -0.2042
     12 C         138.0768  139.2038  165.6483 C.ar    1  UNL1        0.0311
     13 C         138.6997  140.4771  165.1576 C.ar    1  UNL1        0.0198
     14 C         141.5132  142.6559  166.2268 C.ar    1  UNL1        0.0161
     15 C         142.8529  142.2750  166.7835 C.ar    1  UNL1        0.0014
     16 C         143.0550  142.2021  168.2680 C.ar    1  UNL1        0.0039
     17 C         141.9175  142.5101  169.1958 C.ar    1  UNL1        0.0714
     18 C         140.5777  142.8910  168.6391 C.ar    1  UNL1        0.0039
     19 C         140.3755  142.9639  167.1546 C.ar    1  UNL1        0.0014
     20 C         142.1196  142.4373  170.6803 C.3     1  UNL1        0.4186
     21 F         142.3217  142.3643  172.1649 F       1  UNL1       -0.1659
     22 F         142.9541  143.6826  170.6278 F       1  UNL1       -0.1659
     23 F         141.2851  141.1918  170.7328 F       1  UNL1       -0.1659
     24 C         141.6204  144.3304  161.2203 C.3     1  UNL1        0.1004
     25 N         142.5076  143.8060  160.1303 N.3     1  UNL1       -0.2646
     26 C         143.7114  142.9802  160.4753 C.3     1  UNL1        0.1049
     27 C         144.5985  142.4559  159.3853 C.3     1  UNL1        0.1595
     28 O         144.2819  142.7573  157.9505 O.3     1  UNL1       -0.3508
     29 C         143.0782  143.5831  157.6055 C.3     1  UNL1        0.1595
     30 C         142.1910  144.1074  158.6954 C.3     1  UNL1        0.1049
@<TRIPOS>BOND
     1     1     2    1
     2     2     3   ar
     3     3    24    1
     4    24    25    1
     5    25    26    1
     6    26    27    1
     7    27    28    1
     8    28    29    1
     9    29    30    1
    10     3     4   ar
    11     4     5   ar
    12     5    14    1
    13    14    15   ar
    14    15    16   ar
    15    16    17   ar
    16    17    20    1
    17    20    21    1
    18    20    22    1
    19    20    23    1
    20    17    18   ar
    21    18    19   ar
    22     5     6   ar
    23     6     7    1
    24     7     8   ar
    25     8     9   ar
    26     9    10   ar
    27    10    11    1
    28    10    12   ar
    29    12    13   ar
    30     6     2   ar
    31    13     7   ar
    32    30    25    1
    33    19    14   ar
@<TRIPOS>MOLECULE
*****
 30 33 0 0 0
SMALL
GASTEIGER

@<TRIPOS>ATOM
      1 C         139.7859  138.1380  158.1372 C.3     1  UNL1        0.0501
      2 C         139.3990  139.4880  158.6642 C.ar    1  UNL1        0.0391
      3 C         138.8894  140.6396  157.8495 C.ar    1  UNL1        0.0073
      4 C         138.6292  141.7868  158.7803 C.ar    1  UNL1        0.0157
      5 C         138.9781  141.3441  160.1704 C.ar    1  UNL1        0.0634
      6 N         139.4538  139.9233  160.0986 N.ar    1  UNL1       -0.3101
      7 C         139.9052  139.0850  161.2578 C.ar    1  UNL1        0.0638
      8 C         138.8920  138.4328  162.1512 C.ar    1  UNL1        0.0198
      9 C         139.3433  137.5945  163.3104 C.ar    1  UNL1        0.0311
     10 C         140.8079  137.4085  163.5761 C.ar    1  UNL1        0.1402
     11 F         141.2592  136.5703  164.7353 F       1  UNL1       -0.2042
     12 C         141.8210  138.0607  162.6828 C.ar    1  UNL1        0.0311
     13 C         141.3697  138.8990  161.5236 C.ar    1  UNL1        0.0198
     14 C         138.8701  142.1760  161.4138 C.ar    1  UNL1        0.0161
     15 C         137.7313  141.9582  162.3654 C.ar    1  UNL1        0.0014
     16 C         137.6233  142.7901  163.6089 C.ar    1  UNL1        0.0039
     17 C         138.6542  143.8398  163.9007 C.ar    1  UNL1        0.0714
     18 C         139.7930  144.0577  162.9492 C.ar    1  UNL1        0.0039
     19 C         139.9010  143.2258  161.7057 C.ar    1  UNL1        0.0014
     20 C         138.5462  144.6718  165.1442 C.3     1  UNL1        0.4186
     21 F         138.4383  145.5037  166.3877 F       1  UNL1       -0.1659
     22 F         137.0760  144.3816  165.2107 F       1  UNL1       -0.1659
     23 F         140.0164  144.9619  165.0778 F       1  UNL1       -0.1659
     24 C         138.6772  140.6435  156.3646 C.3     1  UNL1        0.1004
     25 N         137.3309  140.3014  155.7984 N.3     1  UNL1       -0.2646
     26 C         136.0923  140.9034  156.3929 C.3     1  UNL1        0.1049
     27 C         134.7461  140.5613  155.8267 C.3     1  UNL1        0.1595
     28 O         134.6384  139.6172  154.6661 O.3     1  UNL1       -0.3508
     29 C         135.8770  139.0151  154.0717 C.3     1  UNL1        0.1595
     30 C         137.2232  139.3572  154.6378 C.3     1  UNL1        0.1049
@<TRIPOS>BOND
     1     1     2    1
     2     2     3   ar
     3     3    24    1
     4    24    25    1
     5    25    26    1
     6    26    27    1
     7    27    28    1
     8    28    29    1
     9    29    30    1
    10     3     4   ar
    11     4     5   ar
    12     5    14    1
    13    14    15   ar
    14    15    16   ar
    15    16    17   ar
    16    17    20    1
    17    20    21    1
    18    20    22    1
    19    20    23    1
    20    17    18   ar
    21    18    19   ar
    22     5     6   ar
    23     6     7    1
    24     7     8   ar
    25     8     9   ar
    26     9    10   ar
    27    10    11    1
    28    10    12   ar
    29    12    13   ar
    30     6     2   ar
    31    13     7   ar
    32    30    25    1
    33    19    14   ar
@<TRIPOS>MOLECULE
*****
 30 33 0 0 0
SMALL
GASTEIGER

@<TRIPOS>ATOM
      1 C         141.4849  142.6969  160.6110 C.3     1  UNL1        0.0501
      2 C         142.2203  142.0640  161.7549 C.ar    1  UNL1        0.0391
      3 C         143.5049  141.2954  161.6599 C.ar    1  UNL1        0.0073
      4 C         143.8788  140.8450  163.0410 C.ar    1  UNL1        0.0157
      5 C         142.8253  141.3353  163.9896 C.ar    1  UNL1        0.0634
      6 N         141.8003  142.0887  163.1946 N.ar    1  UNL1       -0.3101
      7 C         140.5710  142.7505  163.7432 C.ar    1  UNL1        0.0638
      8 C         139.2821  141.9878  163.8260 C.ar    1  UNL1        0.0198
      9 C         138.0528  142.6496  164.3746 C.ar    1  UNL1        0.0311
     10 C         138.1125  144.0742  164.8404 C.ar    1  UNL1        0.1402
     11 F         136.8832  144.7361  165.3890 F       1  UNL1       -0.2042
     12 C         139.4014  144.8370  164.7576 C.ar    1  UNL1        0.0311
     13 C         140.6307  144.1751  164.2090 C.ar    1  UNL1        0.0198
     14 C         142.8010  141.1115  165.4726 C.ar    1  UNL1        0.0161
     15 C         143.0504  142.2570  166.4081 C.ar    1  UNL1        0.0014
     16 C         143.0261  142.0332  167.8911 C.ar    1  UNL1        0.0039
     17 C         142.7524  140.6639  168.4385 C.ar    1  UNL1        0.0714
     18 C         142.5029  139.5182  167.5030 C.ar    1  UNL1        0.0039
     19 C         142.5272  139.7420  166.0200 C.ar    1  UNL1        0.0014
     20 C         142.7281  140.4400  169.9215 C.3     1  UNL1        0.4186
     21 F         142.7038  140.2162  171.4045 F       1  UNL1       -0.1659
     22 F         143.8268  141.4470  170.0915 F       1  UNL1       -0.1659
     23 F         141.6294  139.4330  169.7516 F       1  UNL1       -0.1659
     24 C         144.2796  141.0247  160.4044 C.3     1  UNL1        0.1004
     25 N         143.7655  140.0308  159.4054 N.3     1  UNL1       -0.2646
     26 C         143.2217  138.7126  159.8707 C.3     1  UNL1        0.1049
     27 C         142.7076  137.7187  158.8718 C.3     1  UNL1        0.1595
     28 O         142.7374  138.0430  157.4076 O.3     1  UNL1       -0.3508
     29 C         143.2812  139.3612  156.9423 C.3     1  UNL1        0.1595
     30 C         143.7953  140.3551  157.9412 C.3     1  UNL1        0.1049
@<TRIPOS>BOND
     1     1     2    1
     2     2     3   ar
     3     3    24    1
     4    24    25    1
     5    25    26    1
     6    26    27    1
     7    27    28    1
     8    28    29    1
     9    29    30    1
    10     3     4   ar
    11     4     5   ar
    12     5    14    1
    13    14    15   ar
    14    15    16   ar
    15    16    17   ar
    16    17    20    1
    17    20    21    1
    18    20    22    1
    19    20    23    1
    20    17    18   ar
    21    18    19   ar
    22     5     6   ar
    23     6     7    1
    24     7     8   ar
    25     8     9   ar
    26     9    10   ar
    27    10    11    1
    28    10    12   ar
    29    12    13   ar
    30     6     2   ar
    31    13     7   ar
    32    30    25    1
    33    19    14   ar
@<TRIPOS>MOLECULE
*****
 30 33 0 0 0
SMALL
GASTEIGER

@<TRIPOS>ATOM
      1 C         143.7102  140.1171  158.5363 C.3     1  UNL1        0.0501
      2 C         142.5054  139.5488  159.2259 C.ar    1  UNL1        0.0391
      3 C         141.4092  138.7573  158.5763 C.ar    1  UNL1        0.0073
      4 C         140.4116  138.3916  159.6351 C.ar    1  UNL1        0.0157
      5 C         140.8912  138.9570  160.9391 C.ar    1  UNL1        0.0634
      6 N         142.1853  139.6722  160.6861 N.ar    1  UNL1       -0.3101
      7 C         143.0138  140.3856  161.7131 C.ar    1  UNL1        0.0638
      8 C         144.0386  139.6304  162.5064 C.ar    1  UNL1        0.0198
      9 C         144.8671  140.3437  163.5335 C.ar    1  UNL1        0.0311
     10 C         144.6707  141.8124  163.7672 C.ar    1  UNL1        0.1402
     11 F         145.4992  142.5257  164.7942 F       1  UNL1       -0.2042
     12 C         143.6459  142.5676  162.9739 C.ar    1  UNL1        0.0311
     13 C         142.8174  141.8542  161.9469 C.ar    1  UNL1        0.0198
     14 C         140.1984  138.8296  162.2634 C.ar    1  UNL1        0.0161
     15 C         140.5269  137.6844  163.1745 C.ar    1  UNL1        0.0014
     16 C         139.8342  137.5570  164.4989 C.ar    1  UNL1        0.0039
     17 C         138.8129  138.5749  164.9120 C.ar    1  UNL1        0.0714
     18 C         138.4843  139.7202  164.0008 C.ar    1  UNL1        0.0039
     19 C         139.1771  139.8476  162.6765 C.ar    1  UNL1        0.0014
     20 C         138.1201  138.4475  166.2363 C.3     1  UNL1        0.4186
     21 F         137.4273  138.3202  167.5606 F       1  UNL1       -0.1659
     22 F         138.1116  136.9549  166.0883 F       1  UNL1       -0.1659
     23 F         138.1286  139.9402  166.3843 F       1  UNL1       -0.1659
     24 C         141.3254  138.3952  157.1232 C.3     1  UNL1        0.1004
     25 N         141.7126  137.0187  156.6697 N.3     1  UNL1       -0.2646
     26 C         140.8771  136.3021  155.6508 C.3     1  UNL1        0.1049
     27 C         141.2643  134.9257  155.1973 C.3     1  UNL1        0.1595
     28 O         142.4870  134.2660  155.7628 O.3     1  UNL1       -0.3508
     29 C         143.3226  134.9827  156.7817 C.3     1  UNL1        0.1595
     30 C         142.9353  136.3591  157.2351 C.3     1  UNL1        0.1049
@<TRIPOS>BOND
     1     1     2    1
     2     2     3   ar
     3     3    24    1
     4    24    25    1
     5    25    26    1
     6    26    27    1
     7    27    28    1
     8    28    29    1
     9    29    30    1
    10     3     4   ar
    11     4     5   ar
    12     5    14    1
    13    14    15   ar
    14    15    16   ar
    15    16    17   ar
    16    17    20    1
    17    20    21    1
    18    20    22    1
    19    20    23    1
    20    17    18   ar
    21    18    19   ar
    22     5     6   ar
    23     6     7    1
    24     7     8   ar
    25     8     9   ar
    26     9    10   ar
    27    10    11    1
    28    10    12   ar
    29    12    13   ar
    30     6     2   ar
    31    13     7   ar
    32    30    25    1
    33    19    14   ar
@<TRIPOS>MOLECULE
*****
 30 33 0 0 0
SMALL
GASTEIGER

@<TRIPOS>ATOM
      1 C         141.1750  140.8003  161.0392 C.3     1  UNL1        0.0501
      2 C         141.6861  141.5708  162.2203 C.ar    1  UNL1        0.0391
      3 C         142.5746  142.7782  162.1678 C.ar    1  UNL1        0.0073
      4 C         142.8361  143.2228  163.5763 C.ar    1  UNL1        0.0157
      5 C         142.1093  142.2903  164.4993 C.ar    1  UNL1        0.0634
      6 N         141.3985  141.2692  163.6612 N.ar    1  UNL1       -0.3101
      7 C         140.5492  140.1442  164.1740 C.ar    1  UNL1        0.0638
      8 C         141.1222  138.7624  164.2852 C.ar    1  UNL1        0.0198
      9 C         140.2730  137.6372  164.7980 C.ar    1  UNL1        0.0311
     10 C         138.8507  137.8940  165.1997 C.ar    1  UNL1        0.1402
     11 F         138.0014  136.7689  165.7125 F       1  UNL1       -0.2042
     12 C         138.2777  139.2758  165.0885 C.ar    1  UNL1        0.0311
     13 C         139.1270  140.4009  164.5757 C.ar    1  UNL1        0.0198
     14 C         142.0955  142.3655  165.9974 C.ar    1  UNL1        0.0161
     15 C         143.3680  142.1797  166.7694 C.ar    1  UNL1        0.0014
     16 C         143.3543  142.2550  168.2674 C.ar    1  UNL1        0.0039
     17 C         142.0680  142.5159  168.9934 C.ar    1  UNL1        0.0714
     18 C         140.7954  142.7017  168.2215 C.ar    1  UNL1        0.0039
     19 C         140.8091  142.6265  166.7235 C.ar    1  UNL1        0.0014
     20 C         142.0542  142.5911  170.4915 C.3     1  UNL1        0.4186
     21 F         142.0406  142.6664  171.9895 F       1  UNL1       -0.1659
     22 F         140.6583  142.0424  170.5062 F       1  UNL1       -0.1659
     23 F         143.4503  143.1398  170.4768 F       1  UNL1       -0.1659
     24 C         143.1080  143.4270  160.9250 C.3     1  UNL1        0.1004
     25 N         142.1900  144.2123  160.0358 N.3     1  UNL1       -0.2646
     26 C         141.0830  145.0285  160.6343 C.3     1  UNL1        0.1049
     27 C         140.1651  145.8138  159.7450 C.3     1  UNL1        0.1595
     28 O         140.3542  145.7828  158.2573 O.3     1  UNL1       -0.3508
     29 C         141.4612  144.9666  157.6589 C.3     1  UNL1        0.1595
     30 C         142.3791  144.1813  158.5481 C.3     1  UNL1        0.1049
@<TRIPOS>BOND
     1     1     2    1
     2     2     3   ar
     3     3    24    1
     4    24    25    1
     5    25    26    1
     6    26    27    1
     7    27    28    1
     8    28    29    1
     9    29    30    1
    10     3     4   ar
    11     4     5   ar
    12     5    14    1
    13    14    15   ar
    14    15    16   ar
    15    16    17   ar
    16    17    20    1
    17    20    21    1
    18    20    22    1
    19    20    23    1
    20    17    18   ar
    21    18    19   ar
    22     5     6   ar
    23     6     7    1
    24     7     8   ar
    25     8     9   ar
    26     9    10   ar
    27    10    11    1
    28    10    12   ar
    29    12    13   ar
    30     6     2   ar
    31    13     7   ar
    32    30    25    1
    33    19    14   ar
@<TRIPOS>MOLECULE
*****
 30 33 0 0 0
SMALL
GASTEIGER

@<TRIPOS>ATOM
      1 C         144.0125  140.7175  160.6867 C.3     1  UNL1        0.0501
      2 C         143.3459  139.9792  161.8095 C.ar    1  UNL1        0.0391
      3 C         142.8628  138.5598  161.7673 C.ar    1  UNL1        0.0073
      4 C         142.2638  138.2341  163.1034 C.ar    1  UNL1        0.0157
      5 C         142.3766  139.4523  163.9713 C.ar    1  UNL1        0.0634
      6 N         143.0454  140.5308  163.1716 N.ar    1  UNL1       -0.3101
      7 C         143.3588  141.9175  163.6501 C.ar    1  UNL1        0.0638
      8 C         142.6110  143.0911  163.0901 C.ar    1  UNL1        0.0198
      9 C         142.9242  144.4778  163.5685 C.ar    1  UNL1        0.0311
     10 C         143.9854  144.6909  164.6071 C.ar    1  UNL1        0.1402
     11 F         144.2987  146.0776  165.0856 F       1  UNL1       -0.2042
     12 C         144.7332  143.5174  165.1672 C.ar    1  UNL1        0.0311
     13 C         144.4199  142.1307  164.6887 C.ar    1  UNL1        0.0198
     14 C         141.9037  139.5711  165.3898 C.ar    1  UNL1        0.0161
     15 C         142.8509  139.3020  166.5213 C.ar    1  UNL1        0.0014
     16 C         142.3780  139.4208  167.9398 C.ar    1  UNL1        0.0039
     17 C         140.9578  139.8086  168.2269 C.ar    1  UNL1        0.0714
     18 C         140.0105  140.0777  167.0955 C.ar    1  UNL1        0.0039
     19 C         140.4834  139.9589  165.6770 C.ar    1  UNL1        0.0014
     20 C         140.4849  139.9274  169.6454 C.3     1  UNL1        0.4186
     21 F         140.0119  140.0462  171.0639 F       1  UNL1       -0.1659
     22 F         141.7796  139.3420  170.1260 F       1  UNL1       -0.1659
     23 F         139.1901  140.5128  169.1647 F       1  UNL1       -0.1659
     24 C         142.9615  137.6294  160.5949 C.3     1  UNL1        0.1004
     25 N         142.1393  137.8817  159.3659 N.3     1  UNL1       -0.2646
     26 C         142.6691  137.4957  158.0168 C.3     1  UNL1        0.1049
     27 C         141.8469  137.7480  156.7879 C.3     1  UNL1        0.1595
     28 O         140.4949  138.3864  156.9081 O.3     1  UNL1       -0.3508
     29 C         139.9650  138.7724  158.2572 C.3     1  UNL1        0.1595
     30 C         140.7872  138.5201  159.4861 C.3     1  UNL1        0.1049
@<TRIPOS>BOND
     1     1     2    1
     2     2     3   ar
     3     3    24    1
     4    24    25    1
     5    25    26    1
     6    26    27    1
     7    27    28    1
     8    28    29    1
     9    29    30    1
    10     3     4   ar
    11     4     5   ar
    12     5    14    1
    13    14    15   ar
    14    15    16   ar
    15    16    17   ar
    16    17    20    1
    17    20    21    1
    18    20    22    1
    19    20    23    1
    20    17    18   ar
    21    18    19   ar
    22     5     6   ar
    23     6     7    1
    24     7     8   ar
    25     8     9   ar
    26     9    10   ar
    27    10    11    1
    28    10    12   ar
    29    12    13   ar
    30     6     2   ar
    31    13     7   ar
    32    30    25    1
    33    19    14   ar
@<TRIPOS>MOLECULE
*****
 30 33 0 0 0
SMALL
GASTEIGER

@<TRIPOS>ATOM
      1 C         140.8207  139.9116  166.9494 C.3     1  UNL1        0.0501
      2 C         141.3165  141.0662  166.1302 C.ar    1  UNL1        0.0391
      3 C         142.3040  142.1037  166.5757 C.ar    1  UNL1        0.0073
      4 C         142.5096  143.0647  165.4425 C.ar    1  UNL1        0.0157
      5 C         141.6492  142.6213  164.2967 C.ar    1  UNL1        0.0634
      6 N         140.9118  141.3861  164.7217 N.ar    1  UNL1       -0.3101
      7 C         139.9403  140.6075  163.8851 C.ar    1  UNL1        0.0638
      8 C         140.2984  139.2326  163.4040 C.ar    1  UNL1        0.0198
      9 C         139.3269  138.4540  162.5673 C.ar    1  UNL1        0.0311
     10 C         137.9972  139.0503  162.2118 C.ar    1  UNL1        0.1402
     11 F         137.0257  138.2717  161.3752 F       1  UNL1       -0.2042
     12 C         137.6391  140.4252  162.6929 C.ar    1  UNL1        0.0311
     13 C         138.6106  141.2038  163.5295 C.ar    1  UNL1        0.0198
     14 C         141.5446  143.2947  162.9605 C.ar    1  UNL1        0.0161
     15 C         142.2384  142.7065  161.7678 C.ar    1  UNL1        0.0014
     16 C         142.1338  143.3800  160.4316 C.ar    1  UNL1        0.0039
     17 C         141.3353  144.6415  160.2880 C.ar    1  UNL1        0.0714
     18 C         140.6414  145.2298  161.4807 C.ar    1  UNL1        0.0039
     19 C         140.7460  144.5563  162.8169 C.ar    1  UNL1        0.0014
     20 C         141.2307  145.3149  158.9518 C.3     1  UNL1        0.4186
     21 F         141.1261  145.9883  157.6155 F       1  UNL1       -0.1659
     22 F         139.9498  145.9670  159.3807 F       1  UNL1       -0.1659
     23 F         142.5116  144.6628  158.5228 F       1  UNL1       -0.1659
     24 C         142.9691  142.1686  167.9186 C.3     1  UNL1        0.1004
     25 N         142.1393  142.1512  169.1682 N.3     1  UNL1       -0.2646
     26 C         142.5059  141.2366  170.2992 C.3     1  UNL1        0.1049
     27 C         141.6762  141.2191  171.5486 C.3     1  UNL1        0.1595
     28 O         140.4799  142.1162  171.6671 O.3     1  UNL1       -0.3508
     29 C         140.1133  143.0308  170.5361 C.3     1  UNL1        0.1595
     30 C         140.9430  143.0482  169.2867 C.3     1  UNL1        0.1049
@<TRIPOS>BOND
     1     1     2    1
     2     2     3   ar
     3     3    24    1
     4    24    25    1
     5    25    26    1
     6    26    27    1
     7    27    28    1
     8    28    29    1
     9    29    30    1
    10     3     4   ar
    11     4     5   ar
    12     5    14    1
    13    14    15   ar
    14    15    16   ar
    15    16    17   ar
    16    17    20    1
    17    20    21    1
    18    20    22    1
    19    20    23    1
    20    17    18   ar
    21    18    19   ar
    22     5     6   ar
    23     6     7    1
    24     7     8   ar
    25     8     9   ar
    26     9    10   ar
    27    10    11    1
    28    10    12   ar
    29    12    13   ar
    30     6     2   ar
    31    13     7   ar
    32    30    25    1
    33    19    14   ar
@<TRIPOS>MOLECULE
*****
 30 33 0 0 0
SMALL
GASTEIGER

@<TRIPOS>ATOM
      1 C         144.0486  142.3773  159.3091 C.3     1  UNL1        0.0501
      2 C         142.9198  141.4927  159.7485 C.ar    1  UNL1        0.0391
      3 C         142.0399  140.6745  158.8505 C.ar    1  UNL1        0.0073
      4 C         141.0489  139.9471  159.7101 C.ar    1  UNL1        0.0157
      5 C         141.3163  140.3157  161.1393 C.ar    1  UNL1        0.0634
      6 N         142.4726  141.2709  161.1630 N.ar    1  UNL1       -0.3101
      7 C         143.0759  141.8949  162.3864 C.ar    1  UNL1        0.0638
      8 C         142.3733  143.0273  163.0748 C.ar    1  UNL1        0.0198
      9 C         142.9764  143.6513  164.2983 C.ar    1  UNL1        0.0311
     10 C         144.2823  143.1428  164.8334 C.ar    1  UNL1        0.1402
     11 F         144.8855  143.7667  166.0568 F       1  UNL1       -0.2042
     12 C         144.9849  142.0103  164.1450 C.ar    1  UNL1        0.0311
     13 C         144.3816  141.3863  162.9215 C.ar    1  UNL1        0.0198
     14 C         140.5603  139.8167  162.3348 C.ar    1  UNL1        0.0161
     15 C         139.2533  140.4482  162.7129 C.ar    1  UNL1        0.0014
     16 C         138.4973  139.9492  163.9084 C.ar    1  UNL1        0.0039
     17 C         139.0482  138.8187  164.7259 C.ar    1  UNL1        0.0714
     18 C         140.3551  138.1871  164.3479 C.ar    1  UNL1        0.0039
     19 C         141.1112  138.6861  163.1524 C.ar    1  UNL1        0.0014
     20 C         138.2921  138.3197  165.9215 C.3     1  UNL1        0.4186
     21 F         137.5360  137.8206  167.1170 F       1  UNL1       -0.1659
     22 F         137.8832  139.7251  166.2495 F       1  UNL1       -0.1659
     23 F         138.7010  136.9142  165.5934 F       1  UNL1       -0.1659
     24 C         142.1343  140.5973  157.3555 C.3     1  UNL1        0.1004
     25 N         143.0538  139.6017  156.7125 N.3     1  UNL1       -0.2646
     26 C         144.2937  140.0703  156.0103 C.3     1  UNL1        0.1049
     27 C         145.2131  139.0747  155.3673 C.3     1  UNL1        0.1595
     28 O         144.8926  137.6105  155.4266 O.3     1  UNL1       -0.3508
     29 C         143.6528  137.1419  156.1288 C.3     1  UNL1        0.1595
     30 C         142.7334  138.1375  156.7718 C.3     1  UNL1        0.1049
@<TRIPOS>BOND
     1     1     2    1
     2     2     3   ar
     3     3    24    1
     4    24    25    1
     5    25    26    1
     6    26    27    1
     7    27    28    1
     8    28    29    1
     9    29    30    1
    10     3     4   ar
    11     4     5   ar
    12     5    14    1
    13    14    15   ar
    14    15    16   ar
    15    16    17   ar
    16    17    20    1
    17    20    21    1
    18    20    22    1
    19    20    23    1
    20    17    18   ar
    21    18    19   ar
    22     5     6   ar
    23     6     7    1
    24     7     8   ar
    25     8     9   ar
    26     9    10   ar
    27    10    11    1
    28    10    12   ar
    29    12    13   ar
    30     6     2   ar
    31    13     7   ar
    32    30    25    1
    33    19    14   ar
@<TRIPOS>MOLECULE
*****
 30 33 0 0 0
SMALL
GASTEIGER

@<TRIPOS>ATOM
      1 C         142.9602  137.4954  160.0110 C.3     1  UNL1        0.0501
      2 C         142.0497  138.6789  160.1537 C.ar    1  UNL1        0.0391
      3 C         141.2721  139.3313  159.0493 C.ar    1  UNL1        0.0073
      4 C         140.4988  140.4734  159.6389 C.ar    1  UNL1        0.0157
      5 C         140.7985  140.5269  161.1077 C.ar    1  UNL1        0.0634
      6 N         141.7571  139.4178  161.4258 N.ar    1  UNL1       -0.3101
      7 C         142.3235  139.1029  162.7786 C.ar    1  UNL1        0.0638
      8 C         143.6900  139.5954  163.1528 C.ar    1  UNL1        0.0198
      9 C         144.2565  139.2806  164.5056 C.ar    1  UNL1        0.0311
     10 C         143.4563  138.4731  165.4843 C.ar    1  UNL1        0.1402
     11 F         144.0226  138.1582  166.8371 F       1  UNL1       -0.2042
     12 C         142.0897  137.9806  165.1101 C.ar    1  UNL1        0.0311
     13 C         141.5233  138.2954  163.7573 C.ar    1  UNL1        0.0198
     14 C         140.2381  141.5158  162.0865 C.ar    1  UNL1        0.0161
     15 C         141.0903  142.6465  162.5813 C.ar    1  UNL1        0.0014
     16 C         140.5299  143.6354  163.5601 C.ar    1  UNL1        0.0039
     17 C         139.1173  143.4936  164.0440 C.ar    1  UNL1        0.0714
     18 C         138.2650  142.3628  163.5491 C.ar    1  UNL1        0.0039
     19 C         138.8254  141.3739  162.5704 C.ar    1  UNL1        0.0014
     20 C         138.5569  144.4825  165.0227 C.3     1  UNL1        0.4186
     21 F         137.9966  145.4714  166.0015 F       1  UNL1       -0.1659
     22 F         137.2210  143.8051  164.9423 F       1  UNL1       -0.1659
     23 F         139.8929  145.1599  165.1032 F       1  UNL1       -0.1659
     24 C         141.2684  138.9147  157.6084 C.3     1  UNL1        0.1004
     25 N         142.5656  138.6952  156.8877 N.3     1  UNL1       -0.2646
     26 C         142.8950  137.3417  156.3316 C.3     1  UNL1        0.1049
     27 C         144.1921  137.1223  155.6111 C.3     1  UNL1        0.1595
     28 O         145.1599  138.2565  155.4466 O.3     1  UNL1       -0.3508
     29 C         144.8305  139.6100  156.0027 C.3     1  UNL1        0.1595
     30 C         143.5334  139.8294  156.7233 C.3     1  UNL1        0.1049
@<TRIPOS>BOND
     1     1     2    1
     2     2     3   ar
     3     3    24    1
     4    24    25    1
     5    25    26    1
     6    26    27    1
     7    27    28    1
     8    28    29    1
     9    29    30    1
    10     3     4   ar
    11     4     5   ar
    12     5    14    1
    13    14    15   ar
    14    15    16   ar
    15    16    17   ar
    16    17    20    1
    17    20    21    1
    18    20    22    1
    19    20    23    1
    20    17    18   ar
    21    18    19   ar
    22     5     6   ar
    23     6     7    1
    24     7     8   ar
    25     8     9   ar
    26     9    10   ar
    27    10    11    1
    28    10    12   ar
    29    12    13   ar
    30     6     2   ar
    31    13     7   ar
    32    30    25    1
    33    19    14   ar
