@<TRIPOS>MOLECULE
*****
 43 46 0 0 0
SMALL
GASTEIGER

@<TRIPOS>ATOM
      1 C         139.1178  139.8126  159.1293 C.3     1  UNL1        0.1035
      2 C         140.4568  140.3531  159.5354 C.3     1  UNL1        0.0933
      3 N         140.3003  139.7245  160.8883 N.3     1  UNL1       -0.2711
      4 C         138.9613  139.1839  160.4822 C.3     1  UNL1        0.0933
      5 C         141.1364  139.6622  162.1320 C.3     1  UNL1        0.0578
      6 C         142.4271  138.8979  162.1306 C.3     1  UNL1        0.0187
      7 C         143.2632  138.8356  163.3745 C.3     1  UNL1        0.0326
      8 C         142.8086  139.5376  164.6197 C.3     1  UNL1        0.1085
      9 O         144.0967  138.9457  165.1098 O.3     1  UNL1       -0.3826
     10 C         141.5179  140.3019  164.6211 C.3     1  UNL1        0.0326
     11 C         140.6818  140.3642  163.3773 C.3     1  UNL1        0.0187
     12 H         144.5173  138.4472  164.3919 H       1  UNL1        0.2107
     13 C         142.8014  140.0340  166.0351 C.ar    1  UNL1        0.0211
     14 C         142.7275  141.5062  166.3132 C.ar    1  UNL1        0.0043
     15 C         142.7203  142.0027  167.7286 C.ar    1  UNL1        0.0575
     16 C         142.7869  141.0269  168.8660 C.ar    1  UNL1        0.2251
     17 N         142.8607  139.5549  168.5880 N.ar    1  UNL1       -0.2104
     18 C         142.8680  139.0583  167.1725 C.ar    1  UNL1        0.1000
     19 O         142.7797  141.5235  170.2814 O.3     1  UNL1       -0.4509
     20 C         141.5489  142.1715  170.8427 C.3     1  UNL1        0.3095
     21 C         140.1910  141.6852  170.4311 C.3     1  UNL1        0.4381
     22 F         138.8330  141.1987  170.0195 F       1  UNL1       -0.1663
     23 F         139.9961  142.9247  169.6091 F       1  UNL1       -0.1663
     24 F         140.3858  140.4456  171.2530 F       1  UNL1       -0.1663
     25 O         137.9814  142.4343  158.2156 O.2     1  UNL1       -0.2733
     26 C         137.7135  141.1858  157.4286 C.2     1  UNL1        0.2426
     27 N         138.2817  139.8749  157.8854 N.am    1  UNL1       -0.3018
     28 H         138.1059  139.0554  157.3689 H       1  UNL1        0.1495
     29 C         136.8774  141.2480  156.1848 C.3     1  UNL1        0.1759
     30 N         135.3840  141.3419  156.2889 N.am    1  UNL1       -0.2931
     31 C         134.5306  140.1674  155.9117 C.2     1  UNL1        0.2462
     32 O         135.1706  138.8991  155.4304 O.2     1  UNL1       -0.2701
     33 H         134.9639  142.1744  156.6048 H       1  UNL1        0.1502
     34 C         133.0371  140.2613  156.0158 C.ar    1  UNL1        0.0533
     35 C         132.3118  141.4109  155.3816 C.ar    1  UNL1        0.0045
     36 C         130.8184  141.5047  155.4857 C.ar    1  UNL1        0.0001
     37 C         130.0503  140.4489  156.2240 C.ar    1  UNL1        0.0039
     38 C         130.7755  139.2992  156.8582 C.ar    1  UNL1        0.0716
     39 C         132.2689  139.2054  156.7541 C.ar    1  UNL1        0.0084
     40 C         130.0073  138.2434  157.5965 C.3     1  UNL1        0.4186
     41 F         129.2392  137.1875  158.3348 F       1  UNL1       -0.1659
     42 F         129.8379  139.1782  158.7572 F       1  UNL1       -0.1659
     43 F         130.1768  137.3085  156.4357 F       1  UNL1       -0.1659
@<TRIPOS>BOND
     1    25    26    2
     2    26    29    1
     3    29    30    1
     4    30    31   am
     5    31    32    2
     6    31    34    1
     7    34    35   ar
     8    35    36   ar
     9    36    37   ar
    10    37    38   ar
    11    38    40    1
    12    40    41    1
    13    40    42    1
    14    40    43    1
    15    38    39   ar
    16    26    27   am
    17    27     1    1
    18     1     2    1
    19     2     3    1
    20     5     3    1
    21     5     6    1
    22     6     7    1
    23     7     8    1
    24     8     9    1
    25     8    13    1
    26    13    14   ar
    27    14    15   ar
    28    15    16   ar
    29    16    19    1
    30    19    20    1
    31    20    21    1
    32    21    22    1
    33    21    23    1
    34    21    24    1
    35    16    17   ar
    36    17    18   ar
    37     8    10    1
    38    10    11    1
    39     3     4    1
    40    39    34   ar
    41     4     1    1
    42    11     5    1
    43    18    13   ar
    44    30    33    1
    45    27    28    1
    46     9    12    1
@<TRIPOS>MOLECULE
*****
 43 46 0 0 0
SMALL
GASTEIGER

@<TRIPOS>ATOM
      1 C         139.3085  138.9865  161.6427 C.3     1  UNL1        0.1035
      2 C         139.0280  140.2160  162.4548 C.3     1  UNL1        0.0933
      3 N         139.6490  139.5650  163.6550 N.3     1  UNL1       -0.2711
      4 C         139.9296  138.3354  162.8429 C.3     1  UNL1        0.0933
      5 C         139.8898  139.9740  165.0779 C.3     1  UNL1        0.0578
      6 C         138.9801  139.4812  166.1641 C.3     1  UNL1        0.0187
      7 C         139.2210  139.8903  167.5871 C.3     1  UNL1        0.0326
      8 C         140.3714  140.7920  167.9238 C.3     1  UNL1        0.1085
      9 O         139.7913  140.5878  169.2919 O.3     1  UNL1       -0.3826
     10 C         141.2810  141.2847  166.8376 C.3     1  UNL1        0.0326
     11 C         141.0402  140.8757  165.4147 C.3     1  UNL1        0.0187
     12 H         139.0164  140.0075  169.2312 H       1  UNL1        0.2107
     13 C         141.3204  141.6228  168.7357 C.ar    1  UNL1        0.0211
     14 C         142.7749  141.2607  168.7916 C.ar    1  UNL1        0.0043
     15 C         143.7239  142.0915  169.6035 C.ar    1  UNL1        0.0575
     16 C         143.2183  143.2845  170.3594 C.ar    1  UNL1        0.2251
     17 N         141.7639  143.6466  170.3034 N.ar    1  UNL1       -0.2104
     18 C         140.8147  142.8158  169.4915 C.ar    1  UNL1        0.1000
     19 O         144.1674  144.1153  171.1712 O.3     1  UNL1       -0.4509
     20 C         145.6245  144.1511  170.8170 C.3     1  UNL1        0.3095
     21 C         146.5216  145.1819  171.4356 C.3     1  UNL1        0.4381
     22 F         147.4187  146.2128  172.0541 F       1  UNL1       -0.1663
     23 F         147.7167  144.3337  171.1159 F       1  UNL1       -0.1663
     24 F         145.3265  146.0302  171.7553 F       1  UNL1       -0.1663
     25 O         141.4009  139.5088  159.5572 O.2     1  UNL1       -0.2733
     26 C         140.1139  138.8387  159.1770 C.2     1  UNL1        0.2426
     27 N         139.0677  138.5775  160.2197 N.am    1  UNL1       -0.3018
     28 H         138.2230  138.1377  159.9701 H       1  UNL1        0.1495
     29 C         139.8730  138.4297  157.7541 C.3     1  UNL1        0.1759
     30 N         140.3890  137.1127  157.2546 N.am    1  UNL1       -0.2931
     31 C         141.7972  137.0017  156.7499 C.2     1  UNL1        0.2462
     32 O         142.6893  138.2075  156.7445 O.2     1  UNL1       -0.2701
     33 H         139.8035  136.3213  157.2581 H       1  UNL1        0.1502
     34 C         142.3132  135.6847  156.2504 C.ar    1  UNL1        0.0533
     35 C         141.8631  135.1588  154.9197 C.ar    1  UNL1        0.0045
     36 C         142.3791  133.8419  154.4203 C.ar    1  UNL1        0.0001
     37 C         143.3452  133.0509  155.2516 C.ar    1  UNL1        0.0039
     38 C         143.7953  133.5768  156.5823 C.ar    1  UNL1        0.0716
     39 C         143.2792  134.8937  157.0817 C.ar    1  UNL1        0.0084
     40 C         144.7613  132.7858  157.4136 C.3     1  UNL1        0.4186
     41 F         145.7274  131.9948  158.2449 F       1  UNL1       -0.1659
     42 F         144.4088  133.6153  158.6126 F       1  UNL1       -0.1659
     43 F         145.1139  131.9563  156.2146 F       1  UNL1       -0.1659
@<TRIPOS>BOND
     1    25    26    2
     2    26    29    1
     3    29    30    1
     4    30    31   am
     5    31    32    2
     6    31    34    1
     7    34    35   ar
     8    35    36   ar
     9    36    37   ar
    10    37    38   ar
    11    38    40    1
    12    40    41    1
    13    40    42    1
    14    40    43    1
    15    38    39   ar
    16    26    27   am
    17    27     1    1
    18     1     2    1
    19     2     3    1
    20     5     3    1
    21     5     6    1
    22     6     7    1
    23     7     8    1
    24     8     9    1
    25     8    13    1
    26    13    14   ar
    27    14    15   ar
    28    15    16   ar
    29    16    19    1
    30    19    20    1
    31    20    21    1
    32    21    22    1
    33    21    23    1
    34    21    24    1
    35    16    17   ar
    36    17    18   ar
    37     8    10    1
    38    10    11    1
    39     3     4    1
    40    39    34   ar
    41     4     1    1
    42    11     5    1
    43    18    13   ar
    44    30    33    1
    45    27    28    1
    46     9    12    1
@<TRIPOS>MOLECULE
*****
 43 46 0 0 0
SMALL
GASTEIGER

@<TRIPOS>ATOM
      1 C         141.5543  138.5302  160.2471 C.3     1  UNL1        0.1035
      2 C         141.7522  137.8503  161.5695 C.3     1  UNL1        0.0933
      3 N         141.2877  139.0893  162.2760 N.3     1  UNL1       -0.2711
      4 C         141.0897  139.7691  160.9537 C.3     1  UNL1        0.0933
      5 C         141.0992  139.4846  163.7106 C.3     1  UNL1        0.0578
      6 C         142.0881  140.3973  164.3732 C.3     1  UNL1        0.0187
      7 C         141.8995  140.7926  165.8079 C.3     1  UNL1        0.0326
      8 C         140.7221  140.2753  166.5799 C.3     1  UNL1        0.1085
      9 O         141.3816  141.1088  167.6382 O.3     1  UNL1       -0.3826
     10 C         139.7332  139.3627  165.9173 C.3     1  UNL1        0.0326
     11 C         139.9217  138.9673  164.4827 C.3     1  UNL1        0.0187
     12 H         142.1819  141.5192  167.2746 H       1  UNL1        0.2107
     13 C         139.7737  140.0475  167.7194 C.ar    1  UNL1        0.0211
     14 C         140.0599  140.6465  169.0646 C.ar    1  UNL1        0.0043
     15 C         139.1115  140.4186  170.2041 C.ar    1  UNL1        0.0575
     16 C         137.8769  139.5918  169.9985 C.ar    1  UNL1        0.2251
     17 N         137.5907  138.9929  168.6535 N.ar    1  UNL1       -0.2104
     18 C         138.5391  139.2207  167.5138 C.ar    1  UNL1        0.1000
     19 O         136.9285  139.3640  171.1381 O.3     1  UNL1       -0.4509
     20 C         136.1586  138.0799  171.2281 C.3     1  UNL1        0.3095
     21 C         136.0280  137.3743  172.5452 C.3     1  UNL1        0.4381
     22 F         135.8973  136.6687  173.8625 F       1  UNL1       -0.1663
     23 F         137.2506  136.5636  172.2323 F       1  UNL1       -0.1663
     24 F         134.8054  138.1849  172.8583 F       1  UNL1       -0.1663
     25 O         139.2006  138.4619  158.3882 O.2     1  UNL1       -0.2733
     26 C         140.5660  138.1006  157.8830 C.2     1  UNL1        0.2426
     27 N         141.7428  138.1347  158.8125 N.am    1  UNL1       -0.3018
     28 H         142.6389  137.8976  158.4809 H       1  UNL1        0.1495
     29 C         140.7546  137.7052  156.4485 C.3     1  UNL1        0.1759
     30 N         141.1284  136.2944  156.1023 N.am    1  UNL1       -0.2931
     31 C         142.5535  135.8437  156.2279 C.2     1  UNL1        0.2462
     32 O         143.6049  136.8039  156.6997 O.2     1  UNL1       -0.2701
     33 H         140.4383  135.6641  155.7926 H       1  UNL1        0.1502
     34 C         142.9273  134.4329  155.8817 C.ar    1  UNL1        0.0533
     35 C         142.5985  133.8809  154.5263 C.ar    1  UNL1        0.0045
     36 C         142.9723  132.4701  154.1801 C.ar    1  UNL1        0.0001
     37 C         143.6750  131.6113  155.1894 C.ar    1  UNL1        0.0039
     38 C         144.0039  132.1632  156.5448 C.ar    1  UNL1        0.0716
     39 C         143.6300  133.5740  156.8909 C.ar    1  UNL1        0.0084
     40 C         144.7065  131.3043  157.5540 C.3     1  UNL1        0.4186
     41 F         145.4092  130.4455  158.5633 F       1  UNL1       -0.1659
     42 F         144.3569  130.0823  156.7575 F       1  UNL1       -0.1659
     43 F         145.0562  132.5264  158.3505 F       1  UNL1       -0.1659
@<TRIPOS>BOND
     1    25    26    2
     2    26    29    1
     3    29    30    1
     4    30    31   am
     5    31    32    2
     6    31    34    1
     7    34    35   ar
     8    35    36   ar
     9    36    37   ar
    10    37    38   ar
    11    38    40    1
    12    40    41    1
    13    40    42    1
    14    40    43    1
    15    38    39   ar
    16    26    27   am
    17    27     1    1
    18     1     2    1
    19     2     3    1
    20     5     3    1
    21     5     6    1
    22     6     7    1
    23     7     8    1
    24     8     9    1
    25     8    13    1
    26    13    14   ar
    27    14    15   ar
    28    15    16   ar
    29    16    19    1
    30    19    20    1
    31    20    21    1
    32    21    22    1
    33    21    23    1
    34    21    24    1
    35    16    17   ar
    36    17    18   ar
    37     8    10    1
    38    10    11    1
    39     3     4    1
    40    39    34   ar
    41     4     1    1
    42    11     5    1
    43    18    13   ar
    44    30    33    1
    45    27    28    1
    46     9    12    1
@<TRIPOS>MOLECULE
*****
 43 46 0 0 0
SMALL
GASTEIGER

@<TRIPOS>ATOM
      1 C         142.9486  138.7602  159.0136 C.3     1  UNL1        0.1035
      2 C         142.5140  140.1161  159.4853 C.3     1  UNL1        0.0933
      3 N         143.0885  139.8287  160.8408 N.3     1  UNL1       -0.2711
      4 C         143.5232  138.4728  160.3690 C.3     1  UNL1        0.0933
      5 C         143.1874  140.5842  162.1328 C.3     1  UNL1        0.0578
      6 C         144.3998  141.4185  162.4229 C.3     1  UNL1        0.0187
      7 C         144.4987  142.1740  163.7150 C.3     1  UNL1        0.0326
      8 C         143.3852  142.0952  164.7170 C.3     1  UNL1        0.1085
      9 O         144.3241  143.0128  165.4425 O.3     1  UNL1       -0.3826
     10 C         142.1729  141.2609  164.4269 C.3     1  UNL1        0.0326
     11 C         142.0739  140.5054  163.1349 C.3     1  UNL1        0.0187
     12 H         145.1149  143.1607  164.9006 H       1  UNL1        0.2107
     13 C         142.5978  142.3351  165.9709 C.ar    1  UNL1        0.0211
     14 C         143.2570  142.1873  167.3103 C.ar    1  UNL1        0.0043
     15 C         142.4696  142.4272  168.5642 C.ar    1  UNL1        0.0575
     16 C         141.0230  142.8149  168.4789 C.ar    1  UNL1        0.2251
     17 N         140.3639  142.9627  167.1397 N.ar    1  UNL1       -0.2104
     18 C         141.1513  142.7228  165.8856 C.ar    1  UNL1        0.1000
     19 O         140.2357  143.0547  169.7329 O.3     1  UNL1       -0.4509
     20 C         139.5416  141.9121  170.4129 C.3     1  UNL1        0.3095
     21 C         140.1871  140.5587  170.4523 C.3     1  UNL1        0.4381
     22 F         140.8328  139.2054  170.4918 F       1  UNL1       -0.1663
     23 F         139.2934  140.0998  169.3384 F       1  UNL1       -0.1663
     24 F         141.0809  141.0175  171.5662 F       1  UNL1       -0.1663
     25 O         140.2630  137.9418  157.9562 O.2     1  UNL1       -0.2733
     26 C         141.5069  137.5955  157.1928 C.2     1  UNL1        0.2426
     27 N         142.8497  138.0047  157.7214 N.am    1  UNL1       -0.3018
     28 H         143.6661  137.7774  157.2204 H       1  UNL1        0.1495
     29 C         141.4080  136.8401  155.9008 C.3     1  UNL1        0.1759
     30 N         141.3929  135.3401  155.9082 N.am    1  UNL1       -0.2931
     31 C         142.6566  134.5787  156.1787 C.2     1  UNL1        0.2462
     32 O         143.9355  135.3171  156.4417 O.2     1  UNL1       -0.2701
     33 H         140.5535  134.8554  155.7356 H       1  UNL1        0.1502
     34 C         142.6414  133.0787  156.1861 C.ar    1  UNL1        0.0533
     35 C         141.6973  132.3337  155.2897 C.ar    1  UNL1        0.0045
     36 C         141.6822  130.8339  155.2972 C.ar    1  UNL1        0.0001
     37 C         142.6112  130.0790  156.2011 C.ar    1  UNL1        0.0039
     38 C         143.5553  130.8239  157.0975 C.ar    1  UNL1        0.0716
     39 C         143.5704  132.3238  157.0901 C.ar    1  UNL1        0.0084
     40 C         144.4843  130.0690  158.0015 C.3     1  UNL1        0.4186
     41 F         145.4133  129.3141  158.9054 F       1  UNL1       -0.1659
     42 F         143.7629  128.7942  157.6783 F       1  UNL1       -0.1659
     43 F         145.2058  131.3438  158.3246 F       1  UNL1       -0.1659
@<TRIPOS>BOND
     1    25    26    2
     2    26    29    1
     3    29    30    1
     4    30    31   am
     5    31    32    2
     6    31    34    1
     7    34    35   ar
     8    35    36   ar
     9    36    37   ar
    10    37    38   ar
    11    38    40    1
    12    40    41    1
    13    40    42    1
    14    40    43    1
    15    38    39   ar
    16    26    27   am
    17    27     1    1
    18     1     2    1
    19     2     3    1
    20     5     3    1
    21     5     6    1
    22     6     7    1
    23     7     8    1
    24     8     9    1
    25     8    13    1
    26    13    14   ar
    27    14    15   ar
    28    15    16   ar
    29    16    19    1
    30    19    20    1
    31    20    21    1
    32    21    22    1
    33    21    23    1
    34    21    24    1
    35    16    17   ar
    36    17    18   ar
    37     8    10    1
    38    10    11    1
    39     3     4    1
    40    39    34   ar
    41     4     1    1
    42    11     5    1
    43    18    13   ar
    44    30    33    1
    45    27    28    1
    46     9    12    1
@<TRIPOS>MOLECULE
*****
 43 46 0 0 0
SMALL
GASTEIGER

@<TRIPOS>ATOM
      1 C         140.8365  138.4076  159.0152 C.3     1  UNL1        0.1035
      2 C         141.5060  139.4965  159.8001 C.3     1  UNL1        0.0933
      3 N         140.3714  139.4869  160.7812 N.3     1  UNL1       -0.2711
      4 C         139.7019  138.3980  159.9963 C.3     1  UNL1        0.0933
      5 C         140.0425  140.2501  162.0299 C.3     1  UNL1        0.0578
      6 C         139.1255  141.4353  161.9650 C.3     1  UNL1        0.0187
      7 C         138.7966  142.1985  163.2138 C.3     1  UNL1        0.0326
      8 C         139.3848  141.7764  164.5275 C.3     1  UNL1        0.1085
      9 O         138.5743  142.9575  164.9724 O.3     1  UNL1       -0.3826
     10 C         140.3018  140.5911  164.5925 C.3     1  UNL1        0.0326
     11 C         140.6307  139.8280  163.3437 C.3     1  UNL1        0.0187
     12 H         138.1225  143.3464  164.2072 H       1  UNL1        0.2107
     13 C         139.6915  141.7645  165.9958 C.ar    1  UNL1        0.0211
     14 C         139.5385  140.4972  166.7836 C.ar    1  UNL1        0.0043
     15 C         139.8452  140.4853  168.2519 C.ar    1  UNL1        0.0575
     16 C         140.3049  141.7407  168.9323 C.ar    1  UNL1        0.2251
     17 N         140.4578  143.0078  168.1445 N.ar    1  UNL1       -0.2104
     18 C         140.1511  143.0198  166.6761 C.ar    1  UNL1        0.1000
     19 O         140.6115  141.7287  170.4005 O.3     1  UNL1       -0.4509
     20 C         142.0271  141.5679  170.8698 C.3     1  UNL1        0.3095
     21 C         143.1597  142.0655  170.0215 C.3     1  UNL1        0.4381
     22 F         144.2923  142.5632  169.1733 F       1  UNL1       -0.1663
     23 F         143.3684  140.6796  169.4871 F       1  UNL1       -0.1663
     24 F         142.9510  143.4514  170.5559 F       1  UNL1       -0.1663
     25 O         138.9274  138.4230  156.7010 O.2     1  UNL1       -0.2733
     26 C         140.2109  137.6521  156.6093 C.2     1  UNL1        0.2426
     27 N         141.1654  137.6444  157.7664 N.am    1  UNL1       -0.3018
     28 H         142.0078  137.1385  157.7062 H       1  UNL1        0.1495
     29 C         140.5398  136.8890  155.3606 C.3     1  UNL1        0.1759
     30 N         140.6948  135.3978  155.4118 N.am    1  UNL1       -0.2931
     31 C         141.9865  134.7936  155.8768 C.2     1  UNL1        0.2462
     32 O         143.1233  135.6804  156.2907 O.2     1  UNL1       -0.2701
     33 H         139.9487  134.8158  155.1402 H       1  UNL1        0.1502
     34 C         142.1415  133.3024  155.9280 C.ar    1  UNL1        0.0533
     35 C         141.2748  132.4285  155.0707 C.ar    1  UNL1        0.0045
     36 C         141.4298  130.9374  155.1220 C.ar    1  UNL1        0.0001
     37 C         142.4515  130.3203  156.0305 C.ar    1  UNL1        0.0039
     38 C         143.3182  131.1943  156.8877 C.ar    1  UNL1        0.0716
     39 C         143.1632  132.6853  156.8365 C.ar    1  UNL1        0.0084
     40 C         144.3398  130.5772  157.7962 C.3     1  UNL1        0.4186
     41 F         145.3615  129.9601  158.7047 F       1  UNL1       -0.1659
     42 F         144.9223  131.9336  158.0625 F       1  UNL1       -0.1659
     43 F         143.7574  129.2208  157.5299 F       1  UNL1       -0.1659
@<TRIPOS>BOND
     1    25    26    2
     2    26    29    1
     3    29    30    1
     4    30    31   am
     5    31    32    2
     6    31    34    1
     7    34    35   ar
     8    35    36   ar
     9    36    37   ar
    10    37    38   ar
    11    38    40    1
    12    40    41    1
    13    40    42    1
    14    40    43    1
    15    38    39   ar
    16    26    27   am
    17    27     1    1
    18     1     2    1
    19     2     3    1
    20     5     3    1
    21     5     6    1
    22     6     7    1
    23     7     8    1
    24     8     9    1
    25     8    13    1
    26    13    14   ar
    27    14    15   ar
    28    15    16   ar
    29    16    19    1
    30    19    20    1
    31    20    21    1
    32    21    22    1
    33    21    23    1
    34    21    24    1
    35    16    17   ar
    36    17    18   ar
    37     8    10    1
    38    10    11    1
    39     3     4    1
    40    39    34   ar
    41     4     1    1
    42    11     5    1
    43    18    13   ar
    44    30    33    1
    45    27    28    1
    46     9    12    1
@<TRIPOS>MOLECULE
*****
 43 46 0 0 0
SMALL
GASTEIGER

@<TRIPOS>ATOM
      1 C         140.8559  138.8005  158.9136 C.3     1  UNL1        0.1035
      2 C         141.8625  139.7860  159.4289 C.3     1  UNL1        0.0933
      3 N         140.9869  140.0599  160.6156 N.3     1  UNL1       -0.2711
      4 C         139.9803  139.0743  160.1004 C.3     1  UNL1        0.0933
      5 C         141.0795  140.9504  161.8191 C.3     1  UNL1        0.0578
      6 C         140.9365  142.4357  161.6658 C.3     1  UNL1        0.0187
      7 C         141.0291  143.3262  162.8694 C.3     1  UNL1        0.0326
      8 C         141.2647  142.7314  164.2261 C.3     1  UNL1        0.1085
      9 O         141.1952  144.1855  164.5876 O.3     1  UNL1       -0.3826
     10 C         141.4077  141.2462  164.3793 C.3     1  UNL1        0.0326
     11 C         141.3151  140.3556  163.1759 C.3     1  UNL1        0.0187
     12 H         141.0418  144.7108  163.7867 H       1  UNL1        0.2107
     13 C         141.4762  142.6417  165.7084 C.ar    1  UNL1        0.0211
     14 C         142.8351  142.3161  166.2538 C.ar    1  UNL1        0.0043
     15 C         143.0465  142.2263  167.7361 C.ar    1  UNL1        0.0575
     16 C         141.8990  142.4621  168.6730 C.ar    1  UNL1        0.2251
     17 N         140.5402  142.7876  168.1277 N.ar    1  UNL1       -0.2104
     18 C         140.3287  142.8775  166.6453 C.ar    1  UNL1        0.1000
     19 O         142.1105  142.3723  170.1552 O.3     1  UNL1       -0.4509
     20 C         141.7286  141.1235  170.8931 C.3     1  UNL1        0.3095
     21 C         142.1873  139.7861  170.3920 C.3     1  UNL1        0.4381
     22 F         142.6459  138.4488  169.8909 F       1  UNL1       -0.1663
     23 F         143.6150  140.2025  170.5875 F       1  UNL1       -0.1663
     24 F         140.7596  139.3697  170.1965 F       1  UNL1       -0.1663
     25 O         138.6388  139.1855  156.9296 O.2     1  UNL1       -0.2733
     26 C         139.6548  138.1024  156.7181 C.2     1  UNL1        0.2426
     27 N         140.7633  137.9099  157.7101 N.am    1  UNL1       -0.3018
     28 H         141.4302  137.1991  157.5713 H       1  UNL1        0.1495
     29 C         139.5623  137.2119  155.5147 C.3     1  UNL1        0.1759
     30 N         140.2561  135.8820  155.5106 N.am    1  UNL1       -0.2931
     31 C         141.6338  135.7565  154.9309 C.2     1  UNL1        0.2462
     32 O         142.3177  136.9610  154.3551 O.2     1  UNL1       -0.2701
     33 H         139.8072  135.0914  155.8885 H       1  UNL1        0.1502
     34 C         142.3276  134.4266  154.9268 C.ar    1  UNL1        0.0533
     35 C         142.0770  133.4533  153.8133 C.ar    1  UNL1        0.0045
     36 C         142.7708  132.1234  153.8093 C.ar    1  UNL1        0.0001
     37 C         143.7151  131.7668  154.9188 C.ar    1  UNL1        0.0039
     38 C         143.9657  132.7401  156.0323 C.ar    1  UNL1        0.0716
     39 C         143.2719  134.0699  156.0363 C.ar    1  UNL1        0.0084
     40 C         144.9101  132.3835  157.1418 C.3     1  UNL1        0.4186
     41 F         145.8545  132.0269  158.2513 F       1  UNL1       -0.1659
     42 F         145.4244  131.2295  156.3332 F       1  UNL1       -0.1659
     43 F         144.3958  133.5374  157.9505 F       1  UNL1       -0.1659
@<TRIPOS>BOND
     1    25    26    2
     2    26    29    1
     3    29    30    1
     4    30    31   am
     5    31    32    2
     6    31    34    1
     7    34    35   ar
     8    35    36   ar
     9    36    37   ar
    10    37    38   ar
    11    38    40    1
    12    40    41    1
    13    40    42    1
    14    40    43    1
    15    38    39   ar
    16    26    27   am
    17    27     1    1
    18     1     2    1
    19     2     3    1
    20     5     3    1
    21     5     6    1
    22     6     7    1
    23     7     8    1
    24     8     9    1
    25     8    13    1
    26    13    14   ar
    27    14    15   ar
    28    15    16   ar
    29    16    19    1
    30    19    20    1
    31    20    21    1
    32    21    22    1
    33    21    23    1
    34    21    24    1
    35    16    17   ar
    36    17    18   ar
    37     8    10    1
    38    10    11    1
    39     3     4    1
    40    39    34   ar
    41     4     1    1
    42    11     5    1
    43    18    13   ar
    44    30    33    1
    45    27    28    1
    46     9    12    1
@<TRIPOS>MOLECULE
*****
 43 46 0 0 0
SMALL
GASTEIGER

@<TRIPOS>ATOM
      1 C         138.1720  140.0503  158.9859 C.3     1  UNL1        0.1035
      2 C         137.8279  140.1992  160.4383 C.3     1  UNL1        0.0933
      3 N         139.2315  139.8223  160.8095 N.3     1  UNL1       -0.2711
      4 C         139.5756  139.6734  159.3571 C.3     1  UNL1        0.0933
      5 C         139.9808  139.6611  162.0989 C.3     1  UNL1        0.0578
      6 C         140.4985  138.3122  162.5020 C.3     1  UNL1        0.0187
      7 C         141.2477  138.1511  163.7915 C.3     1  UNL1        0.0326
      8 C         141.4792  139.3388  164.6779 C.3     1  UNL1        0.1085
      9 O         142.1594  138.2740  165.4862 O.3     1  UNL1       -0.3826
     10 C         140.9615  140.6877  164.2748 C.3     1  UNL1        0.0326
     11 C         140.2123  140.8489  162.9854 C.3     1  UNL1        0.0187
     12 H         142.0895  137.4236  165.0248 H       1  UNL1        0.2107
     13 C         141.9469  140.1567  165.8450 C.ar    1  UNL1        0.0211
     14 C         142.1954  139.4992  167.1701 C.ar    1  UNL1        0.0043
     15 C         142.6631  140.3171  168.3373 C.ar    1  UNL1        0.0575
     16 C         142.8824  141.7926  168.1793 C.ar    1  UNL1        0.2251
     17 N         142.6340  142.4501  166.8543 N.ar    1  UNL1       -0.2104
     18 C         142.1662  141.6322  165.6870 C.ar    1  UNL1        0.1000
     19 O         143.3501  142.6104  169.3464 O.3     1  UNL1       -0.4509
     20 C         142.3533  143.1708  170.3172 C.3     1  UNL1        0.3095
     21 C         140.9120  142.7646  170.2307 C.3     1  UNL1        0.4381
     22 F         139.4706  142.3584  170.1442 F       1  UNL1       -0.1663
     23 F         140.6261  143.9614  169.3729 F       1  UNL1       -0.1663
     24 F         141.1977  141.5678  171.0885 F       1  UNL1       -0.1663
     25 O         137.8671  142.7705  157.7582 O.2     1  UNL1       -0.2733
     26 C         137.2702  141.5716  157.0826 C.2     1  UNL1        0.2426
     27 N         137.4227  140.2115  157.6965 N.am    1  UNL1       -0.3018
     28 H         137.0310  139.4246  157.2531 H       1  UNL1        0.1495
     29 C         136.5210  141.7327  155.7932 C.3     1  UNL1        0.1759
     30 N         135.0237  141.8233  155.8021 N.am    1  UNL1       -0.2931
     31 C         134.1976  140.5771  155.9224 C.2     1  UNL1        0.2462
     32 O         134.8687  139.2403  156.0337 O.2     1  UNL1       -0.2701
     33 H         134.5832  142.7007  155.7290 H       1  UNL1        0.1502
     34 C         132.7003  140.6677  155.9312 C.ar    1  UNL1        0.0533
     35 C         131.8908  139.6360  156.6593 C.ar    1  UNL1        0.0045
     36 C         130.3936  139.7267  156.6682 C.ar    1  UNL1        0.0001
     37 C         129.7059  140.8490  155.9489 C.ar    1  UNL1        0.0039
     38 C         130.5154  141.8808  155.2208 C.ar    1  UNL1        0.0716
     39 C         132.0126  141.7901  155.2120 C.ar    1  UNL1        0.0084
     40 C         129.8277  143.0031  154.5015 C.3     1  UNL1        0.4186
     41 F         129.1400  144.1255  153.7823 F       1  UNL1       -0.1659
     42 F         129.0472  143.3203  155.7426 F       1  UNL1       -0.1659
     43 F         130.6082  142.6860  153.2605 F       1  UNL1       -0.1659
@<TRIPOS>BOND
     1    25    26    2
     2    26    29    1
     3    29    30    1
     4    30    31   am
     5    31    32    2
     6    31    34    1
     7    34    35   ar
     8    35    36   ar
     9    36    37   ar
    10    37    38   ar
    11    38    40    1
    12    40    41    1
    13    40    42    1
    14    40    43    1
    15    38    39   ar
    16    26    27   am
    17    27     1    1
    18     1     2    1
    19     2     3    1
    20     5     3    1
    21     5     6    1
    22     6     7    1
    23     7     8    1
    24     8     9    1
    25     8    13    1
    26    13    14   ar
    27    14    15   ar
    28    15    16   ar
    29    16    19    1
    30    19    20    1
    31    20    21    1
    32    21    22    1
    33    21    23    1
    34    21    24    1
    35    16    17   ar
    36    17    18   ar
    37     8    10    1
    38    10    11    1
    39     3     4    1
    40    39    34   ar
    41     4     1    1
    42    11     5    1
    43    18    13   ar
    44    30    33    1
    45    27    28    1
    46     9    12    1
@<TRIPOS>MOLECULE
*****
 43 46 0 0 0
SMALL
GASTEIGER

@<TRIPOS>ATOM
      1 C         142.8773  138.6155  159.1084 C.3     1  UNL1        0.1035
      2 C         141.6974  138.9905  159.9553 C.3     1  UNL1        0.0933
      3 N         142.5719  139.8934  160.7739 N.3     1  UNL1       -0.2711
      4 C         143.7518  139.5184  159.9269 C.3     1  UNL1        0.0933
      5 C         142.3560  140.7969  161.9515 C.3     1  UNL1        0.0578
      6 C         141.9823  142.2336  161.7361 C.3     1  UNL1        0.0187
      7 C         141.7663  143.1371  162.9138 C.3     1  UNL1        0.0326
      8 C         141.9241  142.6040  164.3069 C.3     1  UNL1        0.1085
      9 O         141.5615  144.0271  164.6121 O.3     1  UNL1       -0.3826
     10 C         142.2979  141.1674  164.5224 C.3     1  UNL1        0.0326
     11 C         142.5138  140.2639  163.3448 C.3     1  UNL1        0.0187
     12 H         141.4246  144.5109  163.7826 H       1  UNL1        0.2107
     13 C         141.9560  142.5652  165.8061 C.ar    1  UNL1        0.0211
     14 C         140.6740  142.5911  166.5844 C.ar    1  UNL1        0.0043
     15 C         140.7058  142.5522  168.0836 C.ar    1  UNL1        0.0575
     16 C         142.0197  142.4875  168.8044 C.ar    1  UNL1        0.2251
     17 N         143.3017  142.4616  168.0262 N.ar    1  UNL1       -0.2104
     18 C         143.2699  142.5005  166.5269 C.ar    1  UNL1        0.1000
     19 O         142.0515  142.4486  170.3035 O.3     1  UNL1       -0.4509
     20 C         141.7749  141.1639  171.0266 C.3     1  UNL1        0.3095
     21 C         142.1348  139.8534  170.3918 C.3     1  UNL1        0.4381
     22 F         142.4948  138.5429  169.7570 F       1  UNL1       -0.1663
     23 F         140.6849  139.5916  170.1100 F       1  UNL1       -0.1663
     24 F         143.5846  140.1150  170.6736 F       1  UNL1       -0.1663
     25 O         143.7105  139.7675  156.4666 O.2     1  UNL1       -0.2733
     26 C         143.5097  138.2879  156.6098 C.2     1  UNL1        0.2426
     27 N         143.0932  137.7119  157.9306 N.am    1  UNL1       -0.3018
     28 H         142.9614  136.7408  158.0246 H       1  UNL1        0.1495
     29 C         143.7256  137.3843  155.4322 C.3     1  UNL1        0.1759
     30 N         144.2505  135.9945  155.6395 N.am    1  UNL1       -0.2931
     31 C         143.3232  134.9004  156.0790 C.2     1  UNL1        0.2462
     32 O         141.8711  135.1961  156.3112 O.2     1  UNL1       -0.2701
     33 H         145.2035  135.8004  155.4871 H       1  UNL1        0.1502
     34 C         143.8481  133.5106  156.2863 C.ar    1  UNL1        0.0533
     35 C         144.4874  133.1371  157.5908 C.ar    1  UNL1        0.0045
     36 C         145.0122  131.7473  157.7981 C.ar    1  UNL1        0.0001
     37 C         144.8977  130.7310  156.7008 C.ar    1  UNL1        0.0039
     38 C         144.2584  131.1044  155.3963 C.ar    1  UNL1        0.0716
     39 C         143.7336  132.4942  155.1891 C.ar    1  UNL1        0.0084
     40 C         144.1439  130.0881  154.2991 C.3     1  UNL1        0.4186
     41 F         144.0295  129.0718  153.2018 F       1  UNL1       -0.1659
     42 F         143.8533  131.1827  153.3155 F       1  UNL1       -0.1659
     43 F         144.4346  128.9935  155.2826 F       1  UNL1       -0.1659
@<TRIPOS>BOND
     1    25    26    2
     2    26    29    1
     3    29    30    1
     4    30    31   am
     5    31    32    2
     6    31    34    1
     7    34    35   ar
     8    35    36   ar
     9    36    37   ar
    10    37    38   ar
    11    38    40    1
    12    40    41    1
    13    40    42    1
    14    40    43    1
    15    38    39   ar
    16    26    27   am
    17    27     1    1
    18     1     2    1
    19     2     3    1
    20     5     3    1
    21     5     6    1
    22     6     7    1
    23     7     8    1
    24     8     9    1
    25     8    13    1
    26    13    14   ar
    27    14    15   ar
    28    15    16   ar
    29    16    19    1
    30    19    20    1
    31    20    21    1
    32    21    22    1
    33    21    23    1
    34    21    24    1
    35    16    17   ar
    36    17    18   ar
    37     8    10    1
    38    10    11    1
    39     3     4    1
    40    39    34   ar
    41     4     1    1
    42    11     5    1
    43    18    13   ar
    44    30    33    1
    45    27    28    1
    46     9    12    1
@<TRIPOS>MOLECULE
*****
 43 46 0 0 0
SMALL
GASTEIGER

@<TRIPOS>ATOM
      1 C         141.2510  143.4360  160.2639 C.3     1  UNL1        0.1035
      2 C         141.5972  142.2318  161.0886 C.3     1  UNL1        0.0933
      3 N         141.3090  143.0063  162.3405 N.3     1  UNL1       -0.2711
      4 C         140.9629  144.2105  161.5157 C.3     1  UNL1        0.0933
      5 C         141.3500  142.7026  163.8088 C.3     1  UNL1        0.0578
      6 C         142.5574  143.0734  164.6180 C.3     1  UNL1        0.0187
      7 C         142.5983  142.7696  166.0863 C.3     1  UNL1        0.0326
      8 C         141.4320  142.0950  166.7455 C.3     1  UNL1        0.1085
      9 O         142.3443  142.2502  167.9259 O.3     1  UNL1       -0.3826
     10 C         140.2246  141.7241  165.9363 C.3     1  UNL1        0.0326
     11 C         140.1836  142.0279  164.4680 C.3     1  UNL1        0.0187
     12 H         143.1649  142.6847  167.6454 H       1  UNL1        0.2107
     13 C         140.5824  141.4743  167.8146 C.ar    1  UNL1        0.0211
     14 C         140.4198  142.1627  169.1373 C.ar    1  UNL1        0.0043
     15 C         139.5703  141.5420  170.2064 C.ar    1  UNL1        0.0575
     16 C         138.8834  140.2328  169.9528 C.ar    1  UNL1        0.2251
     17 N         139.0460  139.5444  168.6302 N.ar    1  UNL1       -0.2104
     18 C         139.8955  140.1651  167.5609 C.ar    1  UNL1        0.1000
     19 O         138.0339  139.6122  171.0219 O.3     1  UNL1       -0.4509
     20 C         136.7680  138.8969  170.6533 C.3     1  UNL1        0.3095
     21 C         135.8372  138.4176  171.7274 C.3     1  UNL1        0.4381
     22 F         134.9065  137.9381  172.8016 F       1  UNL1       -0.1663
     23 F         135.3699  139.8253  171.9508 F       1  UNL1       -0.1663
     24 F         136.3045  137.0098  171.5041 F       1  UNL1       -0.1663
     25 O         138.6630  143.2284  158.7608 O.2     1  UNL1       -0.2733
     26 C         139.9161  143.6359  158.0440 C.2     1  UNL1        0.2426
     27 N         141.2100  143.7397  158.7955 N.am    1  UNL1       -0.3018
     28 H         142.0324  144.0072  158.3250 H       1  UNL1        0.1495
     29 C         139.8751  143.9397  156.5757 C.3     1  UNL1        0.1759
     30 N         140.1012  145.3419  156.0932 N.am    1  UNL1       -0.2931
     31 C         139.8359  145.6937  154.6595 C.2     1  UNL1        0.2462
     32 O         139.3444  144.6434  153.7080 O.2     1  UNL1       -0.2701
     33 H         140.4238  146.0313  156.7177 H       1  UNL1        0.1502
     34 C         140.0619  147.0960  154.1770 C.ar    1  UNL1        0.0533
     35 C         140.9055  147.3442  152.9619 C.ar    1  UNL1        0.0045
     36 C         141.1316  148.7464  152.4795 C.ar    1  UNL1        0.0001
     37 C         140.5140  149.9004  153.2123 C.ar    1  UNL1        0.0039
     38 C         139.6704  149.6521  154.4275 C.ar    1  UNL1        0.0716
     39 C         139.4444  148.2499  154.9098 C.ar    1  UNL1        0.0084
     40 C         139.0529  150.8061  155.1603 C.3     1  UNL1        0.4186
     41 F         138.4353  151.9601  155.8931 F       1  UNL1       -0.1659
     42 F         140.0257  151.7420  154.5063 F       1  UNL1       -0.1659
     43 F         138.0801  149.8702  155.8143 F       1  UNL1       -0.1659
@<TRIPOS>BOND
     1    25    26    2
     2    26    29    1
     3    29    30    1
     4    30    31   am
     5    31    32    2
     6    31    34    1
     7    34    35   ar
     8    35    36   ar
     9    36    37   ar
    10    37    38   ar
    11    38    40    1
    12    40    41    1
    13    40    42    1
    14    40    43    1
    15    38    39   ar
    16    26    27   am
    17    27     1    1
    18     1     2    1
    19     2     3    1
    20     5     3    1
    21     5     6    1
    22     6     7    1
    23     7     8    1
    24     8     9    1
    25     8    13    1
    26    13    14   ar
    27    14    15   ar
    28    15    16   ar
    29    16    19    1
    30    19    20    1
    31    20    21    1
    32    21    22    1
    33    21    23    1
    34    21    24    1
    35    16    17   ar
    36    17    18   ar
    37     8    10    1
    38    10    11    1
    39     3     4    1
    40    39    34   ar
    41     4     1    1
    42    11     5    1
    43    18    13   ar
    44    30    33    1
    45    27    28    1
    46     9    12    1
