@<TRIPOS>MOLECULE
*****
 36 39 0 0 0
SMALL
GASTEIGER

@<TRIPOS>ATOM
      1 C         142.8890  143.2374  159.6395 C.ar    1  UNL1        0.1369
      2 C         142.9900  143.7230  158.2240 C.ar    1  UNL1        0.0366
      3 C         142.1476  144.8760  157.7646 C.ar    1  UNL1        0.0032
      4 C         141.2042  145.5434  158.7209 C.ar    1  UNL1        0.0045
      5 C         141.1032  145.0579  160.1365 C.ar    1  UNL1        0.0546
      6 C         141.9456  143.9048  160.5958 C.ar    1  UNL1        0.0429
      7 C         141.6324  143.6484  162.0402 C.3     1  UNL1        0.1780
      8 N         140.5965  144.6429  162.4736 N.am    1  UNL1       -0.2656
      9 C         140.2695  145.5140  161.2970 C.2     1  UNL1        0.2494
     10 O         139.2820  146.6431  161.2834 O.2     1  UNL1       -0.2699
     11 C         142.2472  142.5842  162.9002 C.2     1  UNL1        0.2453
     12 O         141.7082  141.1850  162.8623 O.2     1  UNL1       -0.2729
     13 N         143.4011  142.9194  163.7982 N.am    1  UNL1       -0.2988
     14 H         143.7549  143.8378  163.8231 H       1  UNL1        0.1498
     15 C         144.0160  141.8552  164.6582 C.3     1  UNL1        0.1164
     16 C         143.2700  141.3292  165.8484 C.ar    1  UNL1       -0.0024
     17 C         142.7418  142.2790  166.8822 C.ar    1  UNL1        0.0005
     18 C         141.9958  141.7529  168.0726 C.ar    1  UNL1        0.0369
     19 C         141.7781  140.2771  168.2291 C.ar    1  UNL1        0.1468
     20 C         142.3064  139.3273  167.1952 C.ar    1  UNL1        0.0369
     21 C         143.0524  139.8533  166.0049 C.ar    1  UNL1        0.0005
     22 O         141.0322  139.7510  169.4194 O.3     1  UNL1       -0.4045
     23 C         139.7090  140.3471  169.7987 C.3     1  UNL1        0.5753
     24 F         138.3858  140.9431  170.1780 F       1  UNL1       -0.1328
     25 F         140.3289  140.9403  171.0291 F       1  UNL1       -0.1328
     26 F         139.0891  139.7539  168.5683 F       1  UNL1       -0.1328
     27 C         143.3357  140.6804  159.7493 C.3     1  UNL1        0.2525
     28 O         143.7313  142.0844  160.0989 O.3     1  UNL1       -0.4717
     29 C         139.9935  144.7479  163.8430 C.3     1  UNL1        0.1007
     30 C         138.7081  144.0397  164.1528 C.3     1  UNL1        0.0673
     31 C         138.6684  142.5407  164.1924 C.ar    1  UNL1        0.0607
     32 C         139.3094  141.8032  165.3305 C.ar    1  UNL1        0.0148
     33 C         139.2696  140.3043  165.3701 C.ar    1  UNL1        0.0028
     34 C         138.5889  139.5428  164.2715 C.ar    1  UNL1        0.0207
     35 C         137.9479  140.2803  163.1334 C.ar    1  UNL1        0.0984
     36 N         137.9877  141.7793  163.0939 N.ar    1  UNL1       -0.2481
@<TRIPOS>BOND
     1    27    28    1
     2    28     1    1
     3     1     2   ar
     4     2     3   ar
     5     3     4   ar
     6     4     5   ar
     7     5     6   ar
     8     6     7    1
     9     7    11    1
    10    11    12    2
    11    11    13   am
    12    13    15    1
    13    15    16    1
    14    16    17   ar
    15    17    18   ar
    16    18    19   ar
    17    19    22    1
    18    22    23    1
    19    23    24    1
    20    23    25    1
    21    23    26    1
    22    19    20   ar
    23    20    21   ar
    24     7     8    1
    25     8    29    1
    26    29    30    1
    27    30    31    1
    28    31    32   ar
    29    32    33   ar
    30    33    34   ar
    31    34    35   ar
    32    35    36   ar
    33     8     9   am
    34     9    10    2
    35     6     1   ar
    36    21    16   ar
    37    36    31   ar
    38     9     5    1
    39    13    14    1
@<TRIPOS>MOLECULE
*****
 36 39 0 0 0
SMALL
GASTEIGER

@<TRIPOS>ATOM
      1 C         140.5059  144.2473  160.2059 C.ar    1  UNL1        0.1369
      2 C         141.1863  144.6907  158.9449 C.ar    1  UNL1        0.0366
      3 C         141.0798  143.8573  157.7023 C.ar    1  UNL1        0.0032
      4 C         140.2929  142.5805  157.7207 C.ar    1  UNL1        0.0045
      5 C         139.6125  142.1370  158.9818 C.ar    1  UNL1        0.0546
      6 C         139.7190  142.9705  160.2244 C.ar    1  UNL1        0.0429
      7 C         138.9461  142.2834  161.3109 C.3     1  UNL1        0.1780
      8 N         138.3620  141.0253  160.7399 N.am    1  UNL1       -0.2656
      9 C         138.7739  140.9349  159.3004 C.2     1  UNL1        0.2494
     10 O         138.4108  139.8353  158.3469 O.2     1  UNL1       -0.2699
     11 C         138.7856  142.7691  162.7210 C.2     1  UNL1        0.2453
     12 O         137.4301  143.1614  163.2294 O.2     1  UNL1       -0.2729
     13 N         139.9807  142.8625  163.6228 N.am    1  UNL1       -0.2988
     14 H         140.8704  142.6049  163.2891 H       1  UNL1        0.1498
     15 C         139.8202  143.3482  165.0329 C.3     1  UNL1        0.1164
     16 C         140.0439  142.4080  166.1799 C.ar    1  UNL1       -0.0024
     17 C         139.4479  141.0318  166.1488 C.ar    1  UNL1        0.0005
     18 C         139.6716  140.0914  167.2960 C.ar    1  UNL1        0.0369
     19 C         140.4913  140.5273  168.4741 C.ar    1  UNL1        0.1468
     20 C         141.0874  141.9035  168.5052 C.ar    1  UNL1        0.0369
     21 C         140.8637  142.8438  167.3581 C.ar    1  UNL1        0.0005
     22 O         140.7151  139.5871  169.6212 O.3     1  UNL1       -0.4045
     23 C         142.0370  139.5698  170.3298 C.3     1  UNL1        0.5753
     24 F         143.3590  139.5525  171.0385 F       1  UNL1       -0.1328
     25 F         142.5988  138.6807  169.2603 F       1  UNL1       -0.1328
     26 F         141.4753  140.4589  171.3994 F       1  UNL1       -0.1328
     27 C         139.6619  146.2195  161.6715 C.3     1  UNL1        0.2525
     28 O         140.6123  145.0807  161.4485 O.3     1  UNL1       -0.4717
     29 C         137.5148  140.0321  161.4787 C.3     1  UNL1        0.1007
     30 C         137.9051  138.5839  161.5021 C.3     1  UNL1        0.0673
     31 C         138.9989  138.1166  162.4160 C.ar    1  UNL1        0.0607
     32 C         138.7374  137.9720  163.8860 C.ar    1  UNL1        0.0148
     33 C         139.8312  137.5047  164.7999 C.ar    1  UNL1        0.0028
     34 C         141.1865  137.1820  164.2438 C.ar    1  UNL1        0.0207
     35 C         141.4479  137.3266  162.7739 C.ar    1  UNL1        0.0984
     36 N         140.3541  137.7940  161.8600 N.ar    1  UNL1       -0.2481
@<TRIPOS>BOND
     1    27    28    1
     2    28     1    1
     3     1     2   ar
     4     2     3   ar
     5     3     4   ar
     6     4     5   ar
     7     5     6   ar
     8     6     7    1
     9     7    11    1
    10    11    12    2
    11    11    13   am
    12    13    15    1
    13    15    16    1
    14    16    17   ar
    15    17    18   ar
    16    18    19   ar
    17    19    22    1
    18    22    23    1
    19    23    24    1
    20    23    25    1
    21    23    26    1
    22    19    20   ar
    23    20    21   ar
    24     7     8    1
    25     8    29    1
    26    29    30    1
    27    30    31    1
    28    31    32   ar
    29    32    33   ar
    30    33    34   ar
    31    34    35   ar
    32    35    36   ar
    33     8     9   am
    34     9    10    2
    35     6     1   ar
    36    21    16   ar
    37    36    31   ar
    38     9     5    1
    39    13    14    1
@<TRIPOS>MOLECULE
*****
 36 39 0 0 0
SMALL
GASTEIGER

@<TRIPOS>ATOM
      1 C         142.4539  138.5404  159.1327 C.ar    1  UNL1        0.1369
      2 C         142.4771  137.6231  157.9461 C.ar    1  UNL1        0.0366
      3 C         141.2418  137.4407  157.1149 C.ar    1  UNL1        0.0032
      4 C         139.9834  138.1756  157.4702 C.ar    1  UNL1        0.0045
      5 C         139.9603  139.0929  158.6568 C.ar    1  UNL1        0.0546
      6 C         141.1955  139.2753  159.4880 C.ar    1  UNL1        0.0429
      7 C         140.8735  140.2389  160.5915 C.3     1  UNL1        0.1780
      8 N         139.4393  140.6521  160.4423 N.am    1  UNL1       -0.2656
      9 C         138.8749  139.9438  159.2466 C.2     1  UNL1        0.2494
     10 O         137.4715  140.0651  158.7311 O.2     1  UNL1       -0.2699
     11 C         141.8197  140.7072  161.6571 C.2     1  UNL1        0.2453
     12 O         142.9050  141.6857  161.3193 O.2     1  UNL1       -0.2729
     13 N         141.6804  140.1968  163.0608 N.am    1  UNL1       -0.2988
     14 H         140.9680  139.5545  163.2827 H       1  UNL1        0.1498
     15 C         142.6265  140.6650  164.1265 C.3     1  UNL1        0.1164
     16 C         142.1809  140.7099  165.5580 C.ar    1  UNL1       -0.0024
     17 C         142.5016  139.5704  166.4793 C.ar    1  UNL1        0.0005
     18 C         142.0559  139.6152  167.9110 C.ar    1  UNL1        0.0369
     19 C         141.2897  140.7994  168.4212 C.ar    1  UNL1        0.1468
     20 C         140.9691  141.9389  167.4999 C.ar    1  UNL1        0.0369
     21 C         141.4147  141.8941  166.0683 C.ar    1  UNL1        0.0005
     22 O         140.8441  140.8443  169.8528 O.3     1  UNL1       -0.4045
     23 C         140.0529  142.0153  170.3556 C.3     1  UNL1        0.5753
     24 F         139.2616  143.1863  170.8583 F       1  UNL1       -0.1328
     25 F         138.7785  141.2881  170.0438 F       1  UNL1       -0.1328
     26 F         141.3272  142.7425  170.6673 F       1  UNL1       -0.1328
     27 C         143.9167  137.8588  161.1687 C.3     1  UNL1        0.2525
     28 O         143.6892  138.7228  159.9639 O.3     1  UNL1       -0.4717
     29 C         138.6993  141.6060  161.3326 C.3     1  UNL1        0.1007
     30 C         137.6983  141.0862  162.3213 C.3     1  UNL1        0.0673
     31 C         138.1337  140.1449  163.4050 C.ar    1  UNL1        0.0607
     32 C         138.0700  140.5736  164.8411 C.ar    1  UNL1        0.0148
     33 C         138.5054  139.6323  165.9248 C.ar    1  UNL1        0.0028
     34 C         139.0044  138.2622  165.5724 C.ar    1  UNL1        0.0207
     35 C         139.0680  137.8336  164.1364 C.ar    1  UNL1        0.0984
     36 N         138.6327  138.7749  163.0527 N.ar    1  UNL1       -0.2481
@<TRIPOS>BOND
     1    27    28    1
     2    28     1    1
     3     1     2   ar
     4     2     3   ar
     5     3     4   ar
     6     4     5   ar
     7     5     6   ar
     8     6     7    1
     9     7    11    1
    10    11    12    2
    11    11    13   am
    12    13    15    1
    13    15    16    1
    14    16    17   ar
    15    17    18   ar
    16    18    19   ar
    17    19    22    1
    18    22    23    1
    19    23    24    1
    20    23    25    1
    21    23    26    1
    22    19    20   ar
    23    20    21   ar
    24     7     8    1
    25     8    29    1
    26    29    30    1
    27    30    31    1
    28    31    32   ar
    29    32    33   ar
    30    33    34   ar
    31    34    35   ar
    32    35    36   ar
    33     8     9   am
    34     9    10    2
    35     6     1   ar
    36    21    16   ar
    37    36    31   ar
    38     9     5    1
    39    13    14    1
@<TRIPOS>MOLECULE
*****
 36 39 0 0 0
SMALL
GASTEIGER

@<TRIPOS>ATOM
      1 C         138.2510  141.6194  159.6508 C.ar    1  UNL1        0.1369
      2 C         138.1304  141.2880  158.1929 C.ar    1  UNL1        0.0366
      3 C         138.9732  142.0140  157.1865 C.ar    1  UNL1        0.0032
      4 C         139.9365  143.0713  157.6380 C.ar    1  UNL1        0.0045
      5 C         140.0571  143.4027  159.0960 C.ar    1  UNL1        0.0546
      6 C         139.2144  142.6767  160.1023 C.ar    1  UNL1        0.0429
      7 C         139.5492  143.2150  161.4618 C.3     1  UNL1        0.1780
      8 N         140.5988  144.2736  161.2957 N.am    1  UNL1       -0.2656
      9 C         140.9127  144.3896  159.8335 C.2     1  UNL1        0.2494
     10 O         141.9076  145.3278  159.2171 O.2     1  UNL1       -0.2699
     11 C         138.9411  142.7723  162.7596 C.2     1  UNL1        0.2453
     12 O         137.9856  143.6720  163.4857 O.2     1  UNL1       -0.2729
     13 N         139.2886  141.4297  163.3314 N.am    1  UNL1       -0.2988
     14 H         139.9158  140.8391  162.8548 H       1  UNL1        0.1498
     15 C         138.6805  140.9870  164.6292 C.3     1  UNL1        0.1164
     16 C         139.4143  141.2146  165.9174 C.ar    1  UNL1       -0.0024
     17 C         139.6035  140.0823  166.8829 C.ar    1  UNL1        0.0005
     18 C         140.3374  140.3098  168.1712 C.ar    1  UNL1        0.0369
     19 C         140.8821  141.6696  168.4941 C.ar    1  UNL1        0.1468
     20 C         140.6929  142.8019  167.5285 C.ar    1  UNL1        0.0369
     21 C         139.9590  142.5744  166.2402 C.ar    1  UNL1        0.0005
     22 O         141.6159  141.8971  169.7823 O.3     1  UNL1       -0.4045
     23 C         143.0718  142.2580  169.7624 C.3     1  UNL1        0.5753
     24 F         144.5276  142.6188  169.7425 F       1  UNL1       -0.1328
     25 F         143.3692  141.0148  168.9775 F       1  UNL1       -0.1328
     26 F         142.7743  143.5012  170.5473 F       1  UNL1       -0.1328
     27 C         137.6287  139.4305  160.9043 C.3     1  UNL1        0.2525
     28 O         137.4083  140.8934  160.6572 O.3     1  UNL1       -0.4717
     29 C         141.2247  145.0754  162.3982 C.3     1  UNL1        0.1007
     30 C         142.6239  144.7716  162.8453 C.3     1  UNL1        0.0673
     31 C         142.8874  143.5946  163.7370 C.ar    1  UNL1        0.0607
     32 C         143.5867  143.7898  165.0496 C.ar    1  UNL1        0.0148
     33 C         143.8502  142.6128  165.9414 C.ar    1  UNL1        0.0028
     34 C         143.4145  141.2405  165.5205 C.ar    1  UNL1        0.0207
     35 C         142.7153  141.0453  164.2079 C.ar    1  UNL1        0.0984
     36 N         142.4517  142.2224  163.3161 N.ar    1  UNL1       -0.2481
@<TRIPOS>BOND
     1    27    28    1
     2    28     1    1
     3     1     2   ar
     4     2     3   ar
     5     3     4   ar
     6     4     5   ar
     7     5     6   ar
     8     6     7    1
     9     7    11    1
    10    11    12    2
    11    11    13   am
    12    13    15    1
    13    15    16    1
    14    16    17   ar
    15    17    18   ar
    16    18    19   ar
    17    19    22    1
    18    22    23    1
    19    23    24    1
    20    23    25    1
    21    23    26    1
    22    19    20   ar
    23    20    21   ar
    24     7     8    1
    25     8    29    1
    26    29    30    1
    27    30    31    1
    28    31    32   ar
    29    32    33   ar
    30    33    34   ar
    31    34    35   ar
    32    35    36   ar
    33     8     9   am
    34     9    10    2
    35     6     1   ar
    36    21    16   ar
    37    36    31   ar
    38     9     5    1
    39    13    14    1
@<TRIPOS>MOLECULE
*****
 36 39 0 0 0
SMALL
GASTEIGER

@<TRIPOS>ATOM
      1 C         142.2003  137.9373  159.3677 C.ar    1  UNL1        0.1369
      2 C         142.4899  137.8638  157.8978 C.ar    1  UNL1        0.0366
      3 C         141.4744  138.3523  156.9079 C.ar    1  UNL1        0.0032
      4 C         140.1692  138.9144  157.3878 C.ar    1  UNL1        0.0045
      5 C         139.8795  138.9880  158.8577 C.ar    1  UNL1        0.0546
      6 C         140.8950  138.4994  159.8477 C.ar    1  UNL1        0.0429
      7 C         140.3331  138.6975  161.2242 C.3     1  UNL1        0.1780
      8 N         138.9702  139.3085  161.0851 N.am    1  UNL1       -0.2656
      9 C         138.6899  139.4880  159.6225 C.2     1  UNL1        0.2494
     10 O         137.4395  140.0660  159.0289 O.2     1  UNL1       -0.2699
     11 C         141.0144  138.3463  162.5136 C.2     1  UNL1        0.2453
     12 O         141.0301  136.9243  162.9905 O.2     1  UNL1       -0.2729
     13 N         141.6800  139.4172  163.3262 N.am    1  UNL1       -0.2988
     14 H         141.6697  140.3506  163.0132 H       1  UNL1        0.1498
     15 C         142.3613  139.0660  164.6155 C.3     1  UNL1        0.1164
     16 C         142.2902  140.0066  165.7818 C.ar    1  UNL1       -0.0024
     17 C         143.0514  141.2987  165.7506 C.ar    1  UNL1        0.0005
     18 C         142.9803  142.2394  166.9169 C.ar    1  UNL1        0.0369
     19 C         142.1480  141.8880  168.1143 C.ar    1  UNL1        0.1468
     20 C         141.3867  140.5958  168.1453 C.ar    1  UNL1        0.0369
     21 C         141.4578  139.6552  166.9791 C.ar    1  UNL1        0.0005
     22 O         142.0768  142.8286  169.2805 O.3     1  UNL1       -0.4045
     23 C         140.7731  143.0465  169.9897 C.3     1  UNL1        0.5753
     24 F         139.4695  143.2644  170.6990 F       1  UNL1       -0.1328
     25 F         140.2378  143.7631  168.7856 F       1  UNL1       -0.1328
     26 F         141.3084  142.3299  171.1938 F       1  UNL1       -0.1328
     27 C         144.1660  138.4173  160.9973 C.3     1  UNL1        0.2525
     28 O         143.2158  137.4488  160.3577 O.3     1  UNL1       -0.4717
     29 C         138.0494  139.6755  162.2109 C.3     1  UNL1        0.1007
     30 C         137.5060  141.0699  162.3111 C.3     1  UNL1        0.0673
     31 C         138.0677  142.0228  163.3242 C.ar    1  UNL1        0.0607
     32 C         139.0001  141.5230  164.3877 C.ar    1  UNL1        0.0148
     33 C         139.5618  142.4758  165.4009 C.ar    1  UNL1        0.0028
     34 C         139.1912  143.9285  165.3506 C.ar    1  UNL1        0.0207
     35 C         138.2589  144.4283  164.2871 C.ar    1  UNL1        0.0984
     36 N         137.6971  143.4754  163.2740 N.ar    1  UNL1       -0.2481
@<TRIPOS>BOND
     1    27    28    1
     2    28     1    1
     3     1     2   ar
     4     2     3   ar
     5     3     4   ar
     6     4     5   ar
     7     5     6   ar
     8     6     7    1
     9     7    11    1
    10    11    12    2
    11    11    13   am
    12    13    15    1
    13    15    16    1
    14    16    17   ar
    15    17    18   ar
    16    18    19   ar
    17    19    22    1
    18    22    23    1
    19    23    24    1
    20    23    25    1
    21    23    26    1
    22    19    20   ar
    23    20    21   ar
    24     7     8    1
    25     8    29    1
    26    29    30    1
    27    30    31    1
    28    31    32   ar
    29    32    33   ar
    30    33    34   ar
    31    34    35   ar
    32    35    36   ar
    33     8     9   am
    34     9    10    2
    35     6     1   ar
    36    21    16   ar
    37    36    31   ar
    38     9     5    1
    39    13    14    1
@<TRIPOS>MOLECULE
*****
 36 39 0 0 0
SMALL
GASTEIGER

@<TRIPOS>ATOM
      1 C         139.9149  144.2548  161.4993 C.ar    1  UNL1        0.1369
      2 C         140.5961  145.4121  160.8309 C.ar    1  UNL1        0.0366
      3 C         141.0732  145.2854  159.4145 C.ar    1  UNL1        0.0032
      4 C         140.8692  144.0014  158.6664 C.ar    1  UNL1        0.0045
      5 C         140.1880  142.8441  159.3347 C.ar    1  UNL1        0.0546
      6 C         139.7109  142.9708  160.7511 C.ar    1  UNL1        0.0429
      7 C         139.0774  141.6695  161.1450 C.3     1  UNL1        0.1780
      8 N         139.1630  140.7385  159.9720 N.am    1  UNL1       -0.2656
      9 C         139.8494  141.4645  158.8532 C.2     1  UNL1        0.2494
     10 O         140.1453  140.9084  157.4918 O.2     1  UNL1       -0.2699
     11 C         138.4657  141.3544  162.4779 C.2     1  UNL1        0.2453
     12 O         136.9741  141.2903  162.6223 O.2     1  UNL1       -0.2729
     13 N         139.3458  141.1035  163.6665 N.am    1  UNL1       -0.2988
     14 H         140.3248  141.1456  163.5718 H       1  UNL1        0.1498
     15 C         138.7341  140.7885  164.9994 C.3     1  UNL1        0.1164
     16 C         139.4907  141.0839  166.2604 C.ar    1  UNL1       -0.0024
     17 C         139.5613  140.0564  167.3509 C.ar    1  UNL1        0.0005
     18 C         140.3179  140.3518  168.6120 C.ar    1  UNL1        0.0369
     19 C         141.0040  141.6747  168.7826 C.ar    1  UNL1        0.1468
     20 C         140.9333  142.7023  167.6920 C.ar    1  UNL1        0.0369
     21 C         140.1767  142.4069  166.4310 C.ar    1  UNL1        0.0005
     22 O         141.7606  141.9702  170.0436 O.3     1  UNL1       -0.4045
     23 C         143.2303  142.2644  169.9848 C.3     1  UNL1        0.5753
     24 F         144.7000  142.5586  169.9261 F       1  UNL1       -0.1328
     25 F         143.4645  140.9557  169.2902 F       1  UNL1       -0.1328
     26 F         142.9961  143.5731  170.6794 F       1  UNL1       -0.1328
     27 C         137.9849  144.6242  163.1988 C.3     1  UNL1        0.2525
     28 O         139.4378  144.3815  162.9157 O.3     1  UNL1       -0.4717
     29 C         138.6519  139.3290  159.9259 C.3     1  UNL1        0.1007
     30 C         139.5418  138.1946  160.3398 C.3     1  UNL1        0.0673
     31 C         139.8196  137.9511  161.7936 C.ar    1  UNL1        0.0607
     32 C         141.2349  137.8456  162.2793 C.ar    1  UNL1        0.0148
     33 C         141.5126  137.6021  163.7331 C.ar    1  UNL1        0.0028
     34 C         140.3751  137.4641  164.7012 C.ar    1  UNL1        0.0207
     35 C         138.9599  137.5696  164.2154 C.ar    1  UNL1        0.0984
     36 N         138.6821  137.8131  162.7616 N.ar    1  UNL1       -0.2481
@<TRIPOS>BOND
     1    27    28    1
     2    28     1    1
     3     1     2   ar
     4     2     3   ar
     5     3     4   ar
     6     4     5   ar
     7     5     6   ar
     8     6     7    1
     9     7    11    1
    10    11    12    2
    11    11    13   am
    12    13    15    1
    13    15    16    1
    14    16    17   ar
    15    17    18   ar
    16    18    19   ar
    17    19    22    1
    18    22    23    1
    19    23    24    1
    20    23    25    1
    21    23    26    1
    22    19    20   ar
    23    20    21   ar
    24     7     8    1
    25     8    29    1
    26    29    30    1
    27    30    31    1
    28    31    32   ar
    29    32    33   ar
    30    33    34   ar
    31    34    35   ar
    32    35    36   ar
    33     8     9   am
    34     9    10    2
    35     6     1   ar
    36    21    16   ar
    37    36    31   ar
    38     9     5    1
    39    13    14    1
@<TRIPOS>MOLECULE
*****
 36 39 0 0 0
SMALL
GASTEIGER

@<TRIPOS>ATOM
      1 C         140.4987  144.6215  159.6998 C.ar    1  UNL1        0.1369
      2 C         141.2478  145.5135  158.7548 C.ar    1  UNL1        0.0366
      3 C         142.0834  144.9154  157.6621 C.ar    1  UNL1        0.0032
      4 C         142.1697  143.4252  157.5142 C.ar    1  UNL1        0.0045
      5 C         141.4206  142.5332  158.4592 C.ar    1  UNL1        0.0546
      6 C         140.5850  143.1313  159.5519 C.ar    1  UNL1        0.0429
      7 C         139.9629  142.0080  160.3273 C.3     1  UNL1        0.1780
      8 N         140.4139  140.7157  159.7138 N.am    1  UNL1       -0.2656
      9 C         141.3148  141.0402  158.5592 C.2     1  UNL1        0.2494
     10 O         141.9912  140.0464  157.6621 O.2     1  UNL1       -0.2699
     11 C         139.0500  142.1518  161.5088 C.2     1  UNL1        0.2453
     12 O         137.6949  142.7719  161.3385 O.2     1  UNL1       -0.2729
     13 N         139.4923  141.6756  162.8607 N.am    1  UNL1       -0.2988
     14 H         140.3817  141.2686  162.9726 H       1  UNL1        0.1498
     15 C         138.5794  141.8194  164.0422 C.3     1  UNL1        0.1164
     16 C         138.9891  141.2725  165.3775 C.ar    1  UNL1       -0.0024
     17 C         138.4505  139.9528  165.8447 C.ar    1  UNL1        0.0005
     18 C         138.8602  139.4057  167.1800 C.ar    1  UNL1        0.0369
     19 C         139.8086  140.1784  168.0481 C.ar    1  UNL1        0.1468
     20 C         140.3472  141.4982  167.5808 C.ar    1  UNL1        0.0369
     21 C         139.9375  142.0452  166.2456 C.ar    1  UNL1        0.0005
     22 O         140.2183  139.6315  169.3833 O.3     1  UNL1       -0.4045
     23 C         141.6129  139.8541  169.8890 C.3     1  UNL1        0.5753
     24 F         143.0074  140.0766  170.3946 F       1  UNL1       -0.1328
     25 F         141.0659  140.6034  171.0676 F       1  UNL1       -0.1328
     26 F         142.1598  139.1047  168.7103 F       1  UNL1       -0.1328
     27 C         140.3152  145.7162  162.0488 C.3     1  UNL1        0.2525
     28 O         139.6631  145.2196  160.7925 O.3     1  UNL1       -0.4717
     29 C         140.0312  139.3402  160.1740 C.3     1  UNL1        0.1007
     30 C         141.0636  138.4391  160.7839 C.3     1  UNL1        0.0673
     31 C         141.3316  138.4959  162.2587 C.ar    1  UNL1        0.0607
     32 C         140.9648  137.3334  163.1329 C.ar    1  UNL1        0.0148
     33 C         141.2327  137.3902  164.6077 C.ar    1  UNL1        0.0028
     34 C         141.8675  138.6094  165.2082 C.ar    1  UNL1        0.0207
     35 C         142.2343  139.7718  164.3340 C.ar    1  UNL1        0.0984
     36 N         141.9663  139.7150  162.8592 N.ar    1  UNL1       -0.2481
@<TRIPOS>BOND
     1    27    28    1
     2    28     1    1
     3     1     2   ar
     4     2     3   ar
     5     3     4   ar
     6     4     5   ar
     7     5     6   ar
     8     6     7    1
     9     7    11    1
    10    11    12    2
    11    11    13   am
    12    13    15    1
    13    15    16    1
    14    16    17   ar
    15    17    18   ar
    16    18    19   ar
    17    19    22    1
    18    22    23    1
    19    23    24    1
    20    23    25    1
    21    23    26    1
    22    19    20   ar
    23    20    21   ar
    24     7     8    1
    25     8    29    1
    26    29    30    1
    27    30    31    1
    28    31    32   ar
    29    32    33   ar
    30    33    34   ar
    31    34    35   ar
    32    35    36   ar
    33     8     9   am
    34     9    10    2
    35     6     1   ar
    36    21    16   ar
    37    36    31   ar
    38     9     5    1
    39    13    14    1
@<TRIPOS>MOLECULE
*****
 36 39 0 0 0
SMALL
GASTEIGER

@<TRIPOS>ATOM
      1 C         143.1882  141.4797  159.5025 C.ar    1  UNL1        0.1369
      2 C         143.2175  142.4005  158.3188 C.ar    1  UNL1        0.0366
      3 C         142.0386  142.4709  157.3940 C.ar    1  UNL1        0.0032
      4 C         140.8304  141.6205  157.6530 C.ar    1  UNL1        0.0045
      5 C         140.8011  140.6998  158.8367 C.ar    1  UNL1        0.0546
      6 C         141.9800  140.6293  159.7615 C.ar    1  UNL1        0.0429
      7 C         141.6648  139.6350  160.8394 C.3     1  UNL1        0.1780
      8 N         140.2911  139.0909  160.5809 N.am    1  UNL1       -0.2656
      9 C         139.7573  139.7489  159.3431 C.2     1  UNL1        0.2494
     10 O         138.4153  139.4999  158.7210 O.2     1  UNL1       -0.2699
     11 C         142.5653  139.2521  161.9763 C.2     1  UNL1        0.2453
     12 O         143.6923  138.2888  161.7488 O.2     1  UNL1       -0.2729
     13 N         142.3387  139.8325  163.3409 N.am    1  UNL1       -0.2988
     14 H         141.5990  140.4647  163.4902 H       1  UNL1        0.1498
     15 C         143.2391  139.4495  164.4778 C.3     1  UNL1        0.1164
     16 C         143.0316  140.0535  165.8350 C.ar    1  UNL1       -0.0024
     17 C         143.1273  141.5394  166.0172 C.ar    1  UNL1        0.0005
     18 C         142.9198  142.1435  167.3745 C.ar    1  UNL1        0.0369
     19 C         142.6166  141.2618  168.5495 C.ar    1  UNL1        0.1468
     20 C         142.5209  139.7759  168.3672 C.ar    1  UNL1        0.0369
     21 C         142.7284  139.1718  167.0100 C.ar    1  UNL1        0.0005
     22 O         142.4091  141.8658  169.9067 O.3     1  UNL1       -0.4045
     23 C         141.6754  143.1668  170.0443 C.3     1  UNL1        0.5753
     24 F         140.9416  144.4678  170.1819 F       1  UNL1       -0.1328
     25 F         142.9036  143.7975  170.6306 F       1  UNL1       -0.1328
     26 F         140.4472  142.5361  169.4580 F       1  UNL1       -0.1328
     27 C         144.5347  142.4355  161.5083 C.3     1  UNL1        0.2525
     28 O         144.3671  141.4093  160.4273 O.3     1  UNL1       -0.4717
     29 C         139.5766  138.0683  161.4139 C.3     1  UNL1        0.1007
     30 C         138.4686  138.4906  162.3324 C.3     1  UNL1        0.0673
     31 C         138.7859  139.2146  163.6072 C.ar    1  UNL1        0.0607
     32 C         138.6917  138.4967  164.9209 C.ar    1  UNL1        0.0148
     33 C         139.0091  139.2208  166.1957 C.ar    1  UNL1        0.0028
     34 C         139.4207  140.6628  166.1567 C.ar    1  UNL1        0.0207
     35 C         139.5149  141.3806  164.8430 C.ar    1  UNL1        0.0984
     36 N         139.1975  140.6565  163.5682 N.ar    1  UNL1       -0.2481
@<TRIPOS>BOND
     1    27    28    1
     2    28     1    1
     3     1     2   ar
     4     2     3   ar
     5     3     4   ar
     6     4     5   ar
     7     5     6   ar
     8     6     7    1
     9     7    11    1
    10    11    12    2
    11    11    13   am
    12    13    15    1
    13    15    16    1
    14    16    17   ar
    15    17    18   ar
    16    18    19   ar
    17    19    22    1
    18    22    23    1
    19    23    24    1
    20    23    25    1
    21    23    26    1
    22    19    20   ar
    23    20    21   ar
    24     7     8    1
    25     8    29    1
    26    29    30    1
    27    30    31    1
    28    31    32   ar
    29    32    33   ar
    30    33    34   ar
    31    34    35   ar
    32    35    36   ar
    33     8     9   am
    34     9    10    2
    35     6     1   ar
    36    21    16   ar
    37    36    31   ar
    38     9     5    1
    39    13    14    1
@<TRIPOS>MOLECULE
*****
 36 39 0 0 0
SMALL
GASTEIGER

@<TRIPOS>ATOM
      1 C         140.5371  144.6263  159.6308 C.ar    1  UNL1        0.1369
      2 C         140.6108  145.7228  158.6100 C.ar    1  UNL1        0.0366
      3 C         141.6354  145.6616  157.5162 C.ar    1  UNL1        0.0032
      4 C         142.5863  144.5038  157.4432 C.ar    1  UNL1        0.0045
      5 C         142.5126  143.4073  158.4640 C.ar    1  UNL1        0.0546
      6 C         141.4880  143.4685  159.5578 C.ar    1  UNL1        0.0429
      7 C         141.6531  142.2496  160.4163 C.3     1  UNL1        0.1780
      8 N         142.7797  141.4350  159.8531 N.am    1  UNL1       -0.2656
      9 C         143.3109  142.1506  158.6465 C.2     1  UNL1        0.2494
     10 O         144.4419  141.6902  157.7753 O.2     1  UNL1       -0.2699
     11 C         140.8352  141.9056  161.6257 C.2     1  UNL1        0.2453
     12 O         139.4785  141.2871  161.4625 O.2     1  UNL1       -0.2729
     13 N         141.3740  142.1803  162.9985 N.am    1  UNL1       -0.2988
     14 H         142.2645  142.5863  163.1057 H       1  UNL1        0.1498
     15 C         140.5560  141.8363  164.2079 C.3     1  UNL1        0.1164
     16 C         141.2085  141.7548  165.5561 C.ar    1  UNL1       -0.0024
     17 C         142.5676  142.3528  165.7689 C.ar    1  UNL1        0.0005
     18 C         143.2201  142.2713  167.1171 C.ar    1  UNL1        0.0369
     19 C         142.5136  141.5917  168.2525 C.ar    1  UNL1        0.1468
     20 C         141.1545  140.9936  168.0395 C.ar    1  UNL1        0.0369
     21 C         140.5020  141.0751  166.6914 C.ar    1  UNL1        0.0005
     22 O         143.1661  141.5101  169.6006 O.3     1  UNL1       -0.4045
     23 C         143.4326  142.7626  170.3818 C.3     1  UNL1        0.5753
     24 F         143.6992  144.0151  171.1629 F       1  UNL1       -0.1328
     25 F         144.8985  142.6313  170.0922 F       1  UNL1       -0.1328
     26 F         141.9667  142.8940  170.6714 F       1  UNL1       -0.1328
     27 C         139.6559  145.6897  161.8314 C.3     1  UNL1        0.2525
     28 O         139.5125  144.6875  160.7247 O.3     1  UNL1       -0.4717
     29 C         143.2862  140.1335  160.4004 C.3     1  UNL1        0.1007
     30 C         144.1605  140.1218  161.6191 C.3     1  UNL1        0.0673
     31 C         143.6580  139.5177  162.8968 C.ar    1  UNL1        0.0607
     32 C         144.5155  139.5447  164.1273 C.ar    1  UNL1        0.0148
     33 C         144.0131  138.9405  165.4050 C.ar    1  UNL1        0.0028
     34 C         142.6531  138.3093  165.4522 C.ar    1  UNL1        0.0207
     35 C         141.7957  138.2823  164.2218 C.ar    1  UNL1        0.0984
     36 N         142.2982  138.8865  162.9441 N.ar    1  UNL1       -0.2481
@<TRIPOS>BOND
     1    27    28    1
     2    28     1    1
     3     1     2   ar
     4     2     3   ar
     5     3     4   ar
     6     4     5   ar
     7     5     6   ar
     8     6     7    1
     9     7    11    1
    10    11    12    2
    11    11    13   am
    12    13    15    1
    13    15    16    1
    14    16    17   ar
    15    17    18   ar
    16    18    19   ar
    17    19    22    1
    18    22    23    1
    19    23    24    1
    20    23    25    1
    21    23    26    1
    22    19    20   ar
    23    20    21   ar
    24     7     8    1
    25     8    29    1
    26    29    30    1
    27    30    31    1
    28    31    32   ar
    29    32    33   ar
    30    33    34   ar
    31    34    35   ar
    32    35    36   ar
    33     8     9   am
    34     9    10    2
    35     6     1   ar
    36    21    16   ar
    37    36    31   ar
    38     9     5    1
    39    13    14    1
