@<TRIPOS>MOLECULE
*****
 44 49 0 0 0
SMALL
GASTEIGER

@<TRIPOS>ATOM
      1 N         138.4900  142.1319  158.1493 N.am    1  UNL1       -0.2187
      2 C         138.3868  141.4882  159.5004 C.2     1  UNL1        0.3221
      3 O         137.6952  140.1937  159.8098 O.2     1  UNL1       -0.2512
      4 N         139.0968  142.3665  160.4877 N.am    1  UNL1       -0.1907
      5 C         139.6387  143.5529  159.7469 C.2     1  UNL1        0.2529
      6 O         140.4187  144.6854  160.3459 O.2     1  UNL1       -0.2724
      7 C         139.2638  143.4079  158.3017 C.3     1  UNL1        0.1392
      8 C         138.8185  143.1283  156.8968 C.3     1  UNL1        0.0449
      9 C         139.1577  144.0904  155.7972 C.3     1  UNL1        0.0746
     10 N         139.9421  145.3320  156.1023 N.3     1  UNL1       -0.2676
     11 C         140.3873  145.6116  157.5071 C.3     1  UNL1        0.0746
     12 C         140.0482  144.6495  158.6068 C.3     1  UNL1        0.0449
     13 C         138.6408  140.5102  156.1251 C.ar    1  UNL1        0.2582
     14 N         138.0704  139.9723  154.8464 N.ar    1  UNL1       -0.2061
     15 C         136.7789  140.5180  154.3131 C.ar    1  UNL1        0.1228
     16 C         136.0578  141.6017  155.0586 C.ar    1  UNL1        0.1212
     17 N         136.6282  142.1396  156.3373 N.ar    1  UNL1       -0.2227
     18 C         137.9197  141.5939  156.8706 C.ar    1  UNL1        0.1930
     19 C         139.9392  138.6856  157.4421 C.3     1  UNL1        0.2543
     20 O         139.9322  139.9646  156.6584 O.3     1  UNL1       -0.4542
     21 C         139.2397  142.1044  161.9576 C.ar    1  UNL1        0.0622
     22 C         138.1528  142.5224  162.9031 C.ar    1  UNL1        0.0154
     23 C         138.2957  142.2603  164.3731 C.ar    1  UNL1        0.0013
     24 C         139.5255  141.5802  164.8976 C.ar    1  UNL1       -0.0002
     25 C         140.6124  141.1622  163.9521 C.ar    1  UNL1        0.0013
     26 C         140.4694  141.4243  162.4821 C.ar    1  UNL1        0.0154
     27 C         139.6684  141.3181  166.3676 C.ar    1  UNL1       -0.0040
     28 C         140.3674  142.3158  167.2429 C.ar    1  UNL1       -0.0003
     29 C         140.5103  142.0537  168.7129 C.ar    1  UNL1        0.0011
     30 C         139.9541  140.7939  169.3075 C.ar    1  UNL1        0.0137
     31 C         139.2551  139.7962  168.4323 C.ar    1  UNL1       -0.0031
     32 C         139.1122  140.0583  166.9624 C.ar    1  UNL1       -0.0218
     33 C         138.4132  139.0607  166.0872 C.3     1  UNL1        0.0310
     34 C         140.0971  140.5318  170.7775 C.2     1  UNL1        0.0729
     35 O         140.8462  141.5013  171.6429 O.co2   1  UNL1       -0.5446
     36 O         139.4908  139.3001  171.3822 O.co2   1  UNL1       -0.5446
     37 C         140.2813  146.2941  155.0025 C.3     1  UNL1        0.1183
     38 C         139.7698  147.7032  155.0545 C.ar    1  UNL1        0.0712
     39 N         138.8947  148.1420  156.1910 N.ar    1  UNL1       -0.2471
     40 C         138.3832  149.5512  156.2429 C.ar    1  UNL1        0.0985
     41 C         138.7467  150.5215  155.1584 C.ar    1  UNL1        0.0203
     42 C         139.6218  150.0827  154.0218 C.ar    1  UNL1       -0.0015
     43 C         140.1333  148.6736  153.9699 C.ar    1  UNL1       -0.0069
     44 C         141.0084  148.2347  152.8333 C.3     1  UNL1        0.0323
@<TRIPOS>UNITY_ATOM_ATTR
35 1
charge -1
@<TRIPOS>BOND
     1    19    20    1
     2    20    13    1
     3    13    14   ar
     4    14    15   ar
     5    15    16   ar
     6    16    17   ar
     7    17    18   ar
     8    18     1    1
     9     1     2   am
    10     2     3    2
    11     2     4   am
    12     4    21    1
    13    21    22   ar
    14    22    23   ar
    15    23    24   ar
    16    24    27    1
    17    27    28   ar
    18    28    29   ar
    19    29    30   ar
    20    30    34    1
    21    34    35   ar
    22    34    36   ar
    23    30    31   ar
    24    31    32   ar
    25    32    33    1
    26    24    25   ar
    27    25    26   ar
    28     4     5   am
    29     5     6    2
    30     5     7    1
    31     7     8    1
    32     8     9    1
    33     9    10    1
    34    10    37    1
    35    37    38    1
    36    38    39   ar
    37    39    40   ar
    38    40    41   ar
    39    41    42   ar
    40    42    43   ar
    41    43    44    1
    42    10    11    1
    43    11    12    1
    44    18    13   ar
    45     7     1    1
    46    43    38   ar
    47    26    21   ar
    48    12     7    1
    49    32    27   ar
@<TRIPOS>MOLECULE
*****
 44 49 0 0 0
SMALL
GASTEIGER

@<TRIPOS>ATOM
      1 N         143.6930  140.9505  158.5173 N.am    1  UNL1       -0.2187
      2 C         143.4709  141.5839  159.8589 C.2     1  UNL1        0.3221
      3 O         143.7751  143.0068  160.2234 O.2     1  UNL1       -0.2512
      4 N         142.8913  140.5444  160.7719 N.am    1  UNL1       -0.1907
      5 C         142.7551  139.2687  159.9947 C.2     1  UNL1        0.2529
      6 O         142.2178  137.9700  160.5187 O.2     1  UNL1       -0.2724
      7 C         143.2506  139.5197  158.6012 C.3     1  UNL1        0.1392
      8 C         143.7752  139.9181  157.2536 C.3     1  UNL1        0.0449
      9 C         143.8204  138.9145  156.1398 C.3     1  UNL1        0.0746
     10 N         143.3410  137.5125  156.3736 N.3     1  UNL1       -0.2676
     11 C         142.8164  137.1141  157.7212 C.3     1  UNL1        0.0746
     12 C         142.7712  138.1177  158.8350 C.3     1  UNL1        0.0449
     13 C         143.3660  142.4466  156.4186 C.ar    1  UNL1        0.2582
     14 N         143.9313  143.1251  155.2061 N.ar    1  UNL1       -0.2061
     15 C         145.3887  142.9858  154.8797 C.ar    1  UNL1        0.1228
     16 C         146.2809  142.1681  155.7660 C.ar    1  UNL1        0.1212
     17 N         145.7157  141.4897  156.9784 N.ar    1  UNL1       -0.2227
     18 C         144.2582  141.6290  157.3048 C.ar    1  UNL1        0.1930
     19 C         141.4258  143.7685  157.5313 C.3     1  UNL1        0.2543
     20 O         141.9086  142.5859  156.7449 O.3     1  UNL1       -0.4542
     21 C         142.5140  140.7453  162.2096 C.ar    1  UNL1        0.0622
     22 C         143.1854  139.9383  163.2810 C.ar    1  UNL1        0.0154
     23 C         142.8081  140.1393  164.7189 C.ar    1  UNL1        0.0013
     24 C         141.7595  141.1473  165.0853 C.ar    1  UNL1       -0.0002
     25 C         141.0881  141.9544  164.0138 C.ar    1  UNL1        0.0013
     26 C         141.4654  141.7534  162.5760 C.ar    1  UNL1        0.0154
     27 C         141.3822  141.3483  166.5231 C.ar    1  UNL1       -0.0040
     28 C         142.1635  142.3022  167.3772 C.ar    1  UNL1       -0.0003
     29 C         141.7863  142.5031  168.8150 C.ar    1  UNL1        0.0011
     30 C         140.6276  141.7501  169.3986 C.ar    1  UNL1        0.0137
     31 C         139.8463  140.7962  168.5445 C.ar    1  UNL1       -0.0031
     32 C         140.2235  140.5953  167.1068 C.ar    1  UNL1       -0.0218
     33 C         139.4422  139.6414  166.2526 C.3     1  UNL1        0.0310
     34 C         140.2503  141.9511  170.8364 C.2     1  UNL1        0.0729
     35 O         140.7254  140.9828  171.8789 O.co2   1  UNL1       -0.5446
     36 O         139.3980  143.1205  171.2318 O.co2   1  UNL1       -0.5446
     37 C         143.3862  136.5088  155.2596 C.3     1  UNL1        0.1183
     38 C         143.0217  135.0781  155.5240 C.ar    1  UNL1        0.0712
     39 N         143.9806  134.1816  156.2497 N.ar    1  UNL1       -0.2471
     40 C         143.6160  132.7507  156.5141 C.ar    1  UNL1        0.0985
     41 C         142.2926  132.2164  156.0527 C.ar    1  UNL1        0.0203
     42 C         141.3336  133.1129  155.3269 C.ar    1  UNL1       -0.0015
     43 C         141.6982  134.5437  155.0626 C.ar    1  UNL1       -0.0069
     44 C         140.7392  135.4402  154.3368 C.3     1  UNL1        0.0323
@<TRIPOS>UNITY_ATOM_ATTR
35 1
charge -1
@<TRIPOS>BOND
     1    19    20    1
     2    20    13    1
     3    13    14   ar
     4    14    15   ar
     5    15    16   ar
     6    16    17   ar
     7    17    18   ar
     8    18     1    1
     9     1     2   am
    10     2     3    2
    11     2     4   am
    12     4    21    1
    13    21    22   ar
    14    22    23   ar
    15    23    24   ar
    16    24    27    1
    17    27    28   ar
    18    28    29   ar
    19    29    30   ar
    20    30    34    1
    21    34    35   ar
    22    34    36   ar
    23    30    31   ar
    24    31    32   ar
    25    32    33    1
    26    24    25   ar
    27    25    26   ar
    28     4     5   am
    29     5     6    2
    30     5     7    1
    31     7     8    1
    32     8     9    1
    33     9    10    1
    34    10    37    1
    35    37    38    1
    36    38    39   ar
    37    39    40   ar
    38    40    41   ar
    39    41    42   ar
    40    42    43   ar
    41    43    44    1
    42    10    11    1
    43    11    12    1
    44    18    13   ar
    45     7     1    1
    46    43    38   ar
    47    26    21   ar
    48    12     7    1
    49    32    27   ar
@<TRIPOS>MOLECULE
*****
 44 49 0 0 0
SMALL
GASTEIGER

@<TRIPOS>ATOM
      1 N         141.9198  138.5121  158.6590 N.am    1  UNL1       -0.2187
      2 C         141.3208  138.5520  160.0338 C.2     1  UNL1        0.3221
      3 O         140.1926  137.6966  160.5291 O.2     1  UNL1       -0.2512
      4 N         142.0483  139.5975  160.8262 N.am    1  UNL1       -0.1907
      5 C         143.0968  140.2038  159.9412 C.2     1  UNL1        0.2529
      6 O         144.0562  141.2901  160.3277 O.2     1  UNL1       -0.2724
      7 C         143.0174  139.5330  158.6018 C.3     1  UNL1        0.1392
      8 C         142.8205  138.7765  157.3217 C.3     1  UNL1        0.0449
      9 C         143.6865  139.0743  156.1337 C.3     1  UNL1        0.0746
     10 N         144.7495  140.1286  156.2260 N.3     1  UNL1       -0.2676
     11 C         144.9464  140.8851  157.5062 C.3     1  UNL1        0.0746
     12 C         144.0804  140.5873  158.6941 C.3     1  UNL1        0.0449
     13 C         140.1889  137.8444  156.8403 C.ar    1  UNL1        0.2582
     14 N         139.7647  136.9421  155.7196 N.ar    1  UNL1       -0.2061
     15 C         140.6473  135.8053  155.2970 C.ar    1  UNL1        0.1228
     16 C         141.9542  135.5707  155.9951 C.ar    1  UNL1        0.1212
     17 N         142.3782  136.4730  157.1157 N.ar    1  UNL1       -0.2227
     18 C         141.4956  137.6098  157.5383 C.ar    1  UNL1        0.1930
     19 C         139.4264  140.3151  156.5874 C.3     1  UNL1        0.2543
     20 O         139.3062  138.9812  157.2629 O.3     1  UNL1       -0.4542
     21 C         141.7752  139.9711  162.2529 C.ar    1  UNL1        0.0622
     22 C         140.8271  141.0902  162.5669 C.ar    1  UNL1        0.0154
     23 C         140.5540  141.4638  163.9937 C.ar    1  UNL1        0.0013
     24 C         141.2290  140.7183  165.1066 C.ar    1  UNL1       -0.0002
     25 C         142.1771  139.5991  164.7927 C.ar    1  UNL1        0.0013
     26 C         142.4502  139.2255  163.3658 C.ar    1  UNL1        0.0154
     27 C         140.9559  141.0919  166.5334 C.ar    1  UNL1       -0.0040
     28 C         141.7705  142.1620  167.1976 C.ar    1  UNL1       -0.0003
     29 C         141.4974  142.5356  168.6245 C.ar    1  UNL1        0.0011
     30 C         140.4096  141.8390  169.3870 C.ar    1  UNL1        0.0137
     31 C         139.5950  140.7689  168.7228 C.ar    1  UNL1       -0.0031
     32 C         139.8681  140.3953  167.2961 C.ar    1  UNL1       -0.0218
     33 C         139.0534  139.3252  166.6319 C.3     1  UNL1        0.0310
     34 C         140.1365  142.2126  170.8139 C.2     1  UNL1        0.0729
     35 O         139.2653  143.3929  171.1265 O.co2   1  UNL1       -0.5446
     36 O         140.7347  141.4058  171.9281 O.co2   1  UNL1       -0.5446
     37 C         145.6156  140.4263  155.0380 C.3     1  UNL1        0.1183
     38 C         145.7978  141.8426  154.5788 C.ar    1  UNL1        0.0712
     39 N         144.6532  142.5802  153.9496 N.ar    1  UNL1       -0.2471
     40 C         144.8355  143.9966  153.4904 C.ar    1  UNL1        0.0985
     41 C         146.1622  144.6753  153.6605 C.ar    1  UNL1        0.0203
     42 C         147.3068  143.9377  154.2897 C.ar    1  UNL1       -0.0015
     43 C         147.1246  142.5214  154.7489 C.ar    1  UNL1       -0.0069
     44 C         148.2692  141.7839  155.3781 C.3     1  UNL1        0.0323
@<TRIPOS>UNITY_ATOM_ATTR
35 1
charge -1
@<TRIPOS>BOND
     1    19    20    1
     2    20    13    1
     3    13    14   ar
     4    14    15   ar
     5    15    16   ar
     6    16    17   ar
     7    17    18   ar
     8    18     1    1
     9     1     2   am
    10     2     3    2
    11     2     4   am
    12     4    21    1
    13    21    22   ar
    14    22    23   ar
    15    23    24   ar
    16    24    27    1
    17    27    28   ar
    18    28    29   ar
    19    29    30   ar
    20    30    34    1
    21    34    35   ar
    22    34    36   ar
    23    30    31   ar
    24    31    32   ar
    25    32    33    1
    26    24    25   ar
    27    25    26   ar
    28     4     5   am
    29     5     6    2
    30     5     7    1
    31     7     8    1
    32     8     9    1
    33     9    10    1
    34    10    37    1
    35    37    38    1
    36    38    39   ar
    37    39    40   ar
    38    40    41   ar
    39    41    42   ar
    40    42    43   ar
    41    43    44    1
    42    10    11    1
    43    11    12    1
    44    18    13   ar
    45     7     1    1
    46    43    38   ar
    47    26    21   ar
    48    12     7    1
    49    32    27   ar
@<TRIPOS>MOLECULE
*****
 44 49 0 0 0
SMALL
GASTEIGER

@<TRIPOS>ATOM
      1 N         141.4098  138.8033  158.0205 N.am    1  UNL1       -0.2187
      2 C         140.7930  138.6847  159.3827 C.2     1  UNL1        0.3221
      3 O         139.4881  138.0187  159.7047 O.2     1  UNL1       -0.2512
      4 N         141.7102  139.3490  160.3663 N.am    1  UNL1       -0.1907
      5 C         142.8938  139.8782  159.6121 C.2     1  UNL1        0.2529
      6 O         144.0586  140.6152  160.2036 O.2     1  UNL1       -0.2724
      7 C         142.7082  139.5410  158.1622 C.3     1  UNL1        0.1392
      8 C         142.3872  139.1360  156.7541 C.3     1  UNL1        0.0449
      9 C         143.3338  139.4765  155.6415 C.3     1  UNL1        0.0746
     10 N         144.6014  140.2221  155.9370 N.3     1  UNL1       -0.2676
     11 C         144.9224  140.6271  157.3451 C.3     1  UNL1        0.0746
     12 C         143.9758  140.2866  158.4577 C.3     1  UNL1        0.0449
     13 C         141.1998  136.9055  156.2587 C.ar    1  UNL1        0.2582
     14 N         140.6200  136.3790  154.9794 N.ar    1  UNL1       -0.2061
     15 C         139.6705  137.2237  154.1826 C.ar    1  UNL1        0.1228
     16 C         139.3007  138.5951  154.6652 C.ar    1  UNL1        0.1212
     17 N         139.8805  139.1215  155.9444 N.ar    1  UNL1       -0.2227
     18 C         140.8300  138.2768  156.7412 C.ar    1  UNL1        0.1930
     19 C         143.3797  135.4999  156.4063 C.3     1  UNL1        0.2543
     20 O         142.1493  136.0608  157.0555 O.3     1  UNL1       -0.4542
     21 C         141.4835  139.4640  161.8446 C.ar    1  UNL1        0.0622
     22 C         141.2159  140.8053  162.4602 C.ar    1  UNL1        0.0154
     23 C         140.9892  140.9203  163.9386 C.ar    1  UNL1        0.0013
     24 C         141.0301  139.6938  164.8012 C.ar    1  UNL1       -0.0002
     25 C         141.2978  138.3524  164.1855 C.ar    1  UNL1        0.0013
     26 C         141.5244  138.2375  162.7072 C.ar    1  UNL1        0.0154
     27 C         140.8035  139.8088  166.2795 C.ar    1  UNL1       -0.0040
     28 C         141.9714  139.9671  167.2073 C.ar    1  UNL1       -0.0003
     29 C         141.7447  140.0820  168.6857 C.ar    1  UNL1        0.0011
     30 C         140.3500  140.0386  169.2361 C.ar    1  UNL1        0.0137
     31 C         139.1821  139.8803  168.3083 C.ar    1  UNL1       -0.0031
     32 C         139.4087  139.7654  166.8301 C.ar    1  UNL1       -0.0218
     33 C         138.2408  139.6071  165.9023 C.3     1  UNL1        0.0310
     34 C         140.1234  140.1536  170.7144 C.2     1  UNL1        0.0729
     35 O         140.7951  141.2452  171.4936 O.co2   1  UNL1       -0.5446
     36 O         139.2249  139.1768  171.4136 O.co2   1  UNL1       -0.5446
     37 C         145.5479  140.5627  154.8243 C.3     1  UNL1        0.1183
     38 C         145.7214  141.9902  154.3977 C.ar    1  UNL1        0.0712
     39 N         144.6107  142.6989  153.6806 N.ar    1  UNL1       -0.2471
     40 C         144.7842  144.1266  153.2540 C.ar    1  UNL1        0.0985
     41 C         146.0683  144.8454  153.5445 C.ar    1  UNL1        0.0203
     42 C         147.1789  144.1367  154.2615 C.ar    1  UNL1       -0.0015
     43 C         147.0055  142.7091  154.6881 C.ar    1  UNL1       -0.0069
     44 C         148.1161  142.0004  155.4052 C.3     1  UNL1        0.0323
@<TRIPOS>UNITY_ATOM_ATTR
35 1
charge -1
@<TRIPOS>BOND
     1    19    20    1
     2    20    13    1
     3    13    14   ar
     4    14    15   ar
     5    15    16   ar
     6    16    17   ar
     7    17    18   ar
     8    18     1    1
     9     1     2   am
    10     2     3    2
    11     2     4   am
    12     4    21    1
    13    21    22   ar
    14    22    23   ar
    15    23    24   ar
    16    24    27    1
    17    27    28   ar
    18    28    29   ar
    19    29    30   ar
    20    30    34    1
    21    34    35   ar
    22    34    36   ar
    23    30    31   ar
    24    31    32   ar
    25    32    33    1
    26    24    25   ar
    27    25    26   ar
    28     4     5   am
    29     5     6    2
    30     5     7    1
    31     7     8    1
    32     8     9    1
    33     9    10    1
    34    10    37    1
    35    37    38    1
    36    38    39   ar
    37    39    40   ar
    38    40    41   ar
    39    41    42   ar
    40    42    43   ar
    41    43    44    1
    42    10    11    1
    43    11    12    1
    44    18    13   ar
    45     7     1    1
    46    43    38   ar
    47    26    21   ar
    48    12     7    1
    49    32    27   ar
@<TRIPOS>MOLECULE
*****
 44 49 0 0 0
SMALL
GASTEIGER

@<TRIPOS>ATOM
      1 N         138.6193  141.1120  158.6159 N.am    1  UNL1       -0.2187
      2 C         138.6184  141.6841  160.0026 C.2     1  UNL1        0.3221
      3 O         137.6735  142.7245  160.5265 O.2     1  UNL1       -0.2512
      4 N         139.7285  141.0329  160.7733 N.am    1  UNL1       -0.1907
      5 C         140.4153  140.0585  159.8630 C.2     1  UNL1        0.2529
      6 O         141.5827  139.1880  160.2227 O.2     1  UNL1       -0.2724
      7 C         139.7298  140.1073  158.5296 C.3     1  UNL1        0.1392
      8 C         138.9493  140.2647  157.2584 C.3     1  UNL1        0.0449
      9 C         139.3108  139.4516  156.0508 C.3     1  UNL1        0.0746
     10 N         140.4529  138.4812  156.1145 N.3     1  UNL1       -0.2676
     11 C         141.2334  138.3239  157.3857 C.3     1  UNL1        0.0746
     12 C         140.8718  139.1369  158.5932 C.3     1  UNL1        0.0449
     13 C         137.8843  142.7481  156.7363 C.ar    1  UNL1        0.2582
     14 N         136.9403  143.1161  155.6302 N.ar    1  UNL1       -0.2061
     15 C         135.7874  142.2160  155.2975 C.ar    1  UNL1        0.1228
     16 C         135.5785  140.9478  156.0710 C.ar    1  UNL1        0.1212
     17 N         136.5224  140.5799  157.1771 N.ar    1  UNL1       -0.2227
     18 C         137.6753  141.4800  157.5097 C.ar    1  UNL1        0.1930
     19 C         139.3432  144.8286  156.1956 C.3     1  UNL1        0.2543
     20 O         139.0371  143.6482  157.0690 O.3     1  UNL1       -0.4542
     21 C         140.0884  141.3080  162.2032 C.ar    1  UNL1        0.0622
     22 C         140.9021  142.5188  162.5522 C.ar    1  UNL1        0.0154
     23 C         141.2620  142.7938  163.9822 C.ar    1  UNL1        0.0013
     24 C         140.8083  141.8581  165.0631 C.ar    1  UNL1       -0.0002
     25 C         139.9946  140.6472  164.7141 C.ar    1  UNL1        0.0013
     26 C         139.6347  140.3722  163.2841 C.ar    1  UNL1        0.0154
     27 C         141.1683  142.1331  166.4931 C.ar    1  UNL1       -0.0040
     28 C         140.2258  142.9045  167.3687 C.ar    1  UNL1       -0.0003
     29 C         140.5858  143.1796  168.7987 C.ar    1  UNL1        0.0011
     30 C         141.8882  142.6832  169.3529 C.ar    1  UNL1        0.0137
     31 C         142.8307  141.9118  168.4773 C.ar    1  UNL1       -0.0031
     32 C         142.4708  141.6367  167.0474 C.ar    1  UNL1       -0.0218
     33 C         143.4132  140.8653  166.1718 C.3     1  UNL1        0.0310
     34 C         142.2482  142.9582  170.7829 C.2     1  UNL1        0.0729
     35 O         141.5806  142.1908  171.8853 O.co2   1  UNL1       -0.5446
     36 O         143.2758  144.0008  171.1104 O.co2   1  UNL1       -0.5446
     37 C         140.8144  137.6682  154.9069 C.3     1  UNL1        0.1183
     38 C         141.5993  136.3997  155.0643 C.ar    1  UNL1        0.0712
     39 N         140.8852  135.0867  155.1910 N.ar    1  UNL1       -0.2471
     40 C         141.6702  133.8181  155.3484 C.ar    1  UNL1        0.0985
     41 C         143.1692  133.8627  155.3791 C.ar    1  UNL1        0.0203
     42 C         143.8833  135.1757  155.2524 C.ar    1  UNL1       -0.0015
     43 C         143.0984  136.4442  155.0950 C.ar    1  UNL1       -0.0069
     44 C         143.8125  137.7572  154.9683 C.3     1  UNL1        0.0323
@<TRIPOS>UNITY_ATOM_ATTR
35 1
charge -1
@<TRIPOS>BOND
     1    19    20    1
     2    20    13    1
     3    13    14   ar
     4    14    15   ar
     5    15    16   ar
     6    16    17   ar
     7    17    18   ar
     8    18     1    1
     9     1     2   am
    10     2     3    2
    11     2     4   am
    12     4    21    1
    13    21    22   ar
    14    22    23   ar
    15    23    24   ar
    16    24    27    1
    17    27    28   ar
    18    28    29   ar
    19    29    30   ar
    20    30    34    1
    21    34    35   ar
    22    34    36   ar
    23    30    31   ar
    24    31    32   ar
    25    32    33    1
    26    24    25   ar
    27    25    26   ar
    28     4     5   am
    29     5     6    2
    30     5     7    1
    31     7     8    1
    32     8     9    1
    33     9    10    1
    34    10    37    1
    35    37    38    1
    36    38    39   ar
    37    39    40   ar
    38    40    41   ar
    39    41    42   ar
    40    42    43   ar
    41    43    44    1
    42    10    11    1
    43    11    12    1
    44    18    13   ar
    45     7     1    1
    46    43    38   ar
    47    26    21   ar
    48    12     7    1
    49    32    27   ar
@<TRIPOS>MOLECULE
*****
 44 49 0 0 0
SMALL
GASTEIGER

@<TRIPOS>ATOM
      1 N         142.9952  139.4059  158.3073 N.am    1  UNL1       -0.2187
      2 C         142.5037  139.1518  159.7016 C.2     1  UNL1        0.3221
      3 O         141.6728  137.9841  160.1445 O.2     1  UNL1       -0.2512
      4 N         142.9891  140.2704  160.5752 N.am    1  UNL1       -0.1907
      5 C         143.7805  141.2158  159.7209 C.2     1  UNL1        0.2529
      6 O         144.4505  142.4745  160.1864 O.2     1  UNL1       -0.2724
      7 C         143.7843  140.6815  158.3192 C.3     1  UNL1        0.1392
      8 C         143.7012  140.0281  156.9716 C.3     1  UNL1        0.0449
      9 C         144.3757  140.6587  155.7895 C.3     1  UNL1        0.0746
     10 N         145.1332  141.9427  155.9551 N.3     1  UNL1       -0.2676
     11 C         145.2163  142.5961  157.3027 C.3     1  UNL1        0.0746
     12 C         144.5419  141.9655  158.4848 C.3     1  UNL1        0.0449
     13 C         141.4749  138.6947  156.3243 C.ar    1  UNL1        0.2582
     14 N         141.2217  137.8257  155.1281 N.ar    1  UNL1       -0.2061
     15 C         142.2357  136.7989  154.7189 C.ar    1  UNL1        0.1228
     16 C         143.5030  136.6411  155.5059 C.ar    1  UNL1        0.1212
     17 N         143.7561  137.5101  156.7019 N.ar    1  UNL1       -0.2227
     18 C         142.7421  138.5369  157.1112 C.ar    1  UNL1        0.1930
     19 C         139.3815  139.3615  157.7109 C.3     1  UNL1        0.2543
     20 O         140.4608  139.7215  156.7335 O.3     1  UNL1       -0.4542
     21 C         142.7287  140.4177  162.0450 C.ar    1  UNL1        0.0622
     22 C         143.5440  139.6373  163.0331 C.ar    1  UNL1        0.0154
     23 C         143.2836  139.7847  164.5029 C.ar    1  UNL1        0.0013
     24 C         142.2079  140.7124  164.9848 C.ar    1  UNL1       -0.0002
     25 C         141.3926  141.4929  163.9967 C.ar    1  UNL1        0.0013
     26 C         141.6530  141.3455  162.5269 C.ar    1  UNL1        0.0154
     27 C         141.9476  140.8598  166.4547 C.ar    1  UNL1       -0.0040
     28 C         140.9535  139.9649  167.1337 C.ar    1  UNL1       -0.0003
     29 C         140.6932  140.1122  168.6035 C.ar    1  UNL1        0.0011
     30 C         141.4269  141.1545  169.3943 C.ar    1  UNL1        0.0137
     31 C         142.4209  142.0494  168.7153 C.ar    1  UNL1       -0.0031
     32 C         142.6812  141.9021  167.2455 C.ar    1  UNL1       -0.0218
     33 C         143.6752  142.7970  166.5665 C.3     1  UNL1        0.0310
     34 C         141.1665  141.3018  170.8642 C.2     1  UNL1        0.0729
     35 O         140.1868  140.3941  171.5470 O.co2   1  UNL1       -0.5446
     36 O         141.8858  142.3570  171.6512 O.co2   1  UNL1       -0.5446
     37 C         145.8077  142.5733  154.7729 C.3     1  UNL1        0.1183
     38 C         147.2932  142.4522  154.6041 C.ar    1  UNL1        0.0712
     39 N         148.0966  141.6507  155.5851 N.ar    1  UNL1       -0.2471
     40 C         149.5822  141.5296  155.4163 C.ar    1  UNL1        0.0985
     41 C         150.2644  142.2100  154.2667 C.ar    1  UNL1        0.0203
     42 C         149.4610  143.0115  153.2857 C.ar    1  UNL1       -0.0015
     43 C         147.9755  143.1326  153.4545 C.ar    1  UNL1       -0.0069
     44 C         147.1721  143.9341  152.4735 C.3     1  UNL1        0.0323
@<TRIPOS>UNITY_ATOM_ATTR
35 1
charge -1
@<TRIPOS>BOND
     1    19    20    1
     2    20    13    1
     3    13    14   ar
     4    14    15   ar
     5    15    16   ar
     6    16    17   ar
     7    17    18   ar
     8    18     1    1
     9     1     2   am
    10     2     3    2
    11     2     4   am
    12     4    21    1
    13    21    22   ar
    14    22    23   ar
    15    23    24   ar
    16    24    27    1
    17    27    28   ar
    18    28    29   ar
    19    29    30   ar
    20    30    34    1
    21    34    35   ar
    22    34    36   ar
    23    30    31   ar
    24    31    32   ar
    25    32    33    1
    26    24    25   ar
    27    25    26   ar
    28     4     5   am
    29     5     6    2
    30     5     7    1
    31     7     8    1
    32     8     9    1
    33     9    10    1
    34    10    37    1
    35    37    38    1
    36    38    39   ar
    37    39    40   ar
    38    40    41   ar
    39    41    42   ar
    40    42    43   ar
    41    43    44    1
    42    10    11    1
    43    11    12    1
    44    18    13   ar
    45     7     1    1
    46    43    38   ar
    47    26    21   ar
    48    12     7    1
    49    32    27   ar
@<TRIPOS>MOLECULE
*****
 44 49 0 0 0
SMALL
GASTEIGER

@<TRIPOS>ATOM
      1 N         141.8571  138.2096  158.6555 N.am    1  UNL1       -0.2187
      2 C         142.2585  138.2841  160.0989 C.2     1  UNL1        0.3221
      3 O         143.4982  137.6919  160.7010 O.2     1  UNL1       -0.2512
      4 N         141.2026  139.0549  160.8345 N.am    1  UNL1       -0.1907
      5 C         140.1486  139.4567  159.8458 C.2     1  UNL1        0.2529
      6 O         138.9080  140.2429  160.1502 O.2     1  UNL1       -0.2724
      7 C         140.5531  138.9343  158.4990 C.3     1  UNL1        0.1392
      8 C         141.0849  138.3529  157.2227 C.3     1  UNL1        0.0449
      9 C         140.3198  138.5250  155.9441 C.3     1  UNL1        0.0746
     10 N         139.0228  139.2785  155.9418 N.3     1  UNL1       -0.2676
     11 C         138.4909  139.8599  157.2181 C.3     1  UNL1        0.0746
     12 C         139.2561  139.6878  158.4967 C.3     1  UNL1        0.0449
     13 C         143.7049  138.2712  156.8302 C.ar    1  UNL1        0.2582
     14 N         144.4727  137.5914  155.7355 N.ar    1  UNL1       -0.2061
     15 C         144.1604  136.1701  155.3715 C.ar    1  UNL1        0.1228
     16 C         143.0803  135.4287  156.1021 C.ar    1  UNL1        0.1212
     17 N         142.3126  136.1085  157.1967 N.ar    1  UNL1       -0.2227
     18 C         142.6249  137.5298  157.5608 C.ar    1  UNL1        0.1930
     19 C         144.9933  140.4802  156.3717 C.3     1  UNL1        0.2543
     20 O         144.0172  139.6925  157.1943 O.3     1  UNL1       -0.4542
     21 C         141.2010  139.3687  162.3012 C.ar    1  UNL1        0.0622
     22 C         141.0270  140.7845  162.7651 C.ar    1  UNL1        0.0154
     23 C         141.0253  141.0983  164.2320 C.ar    1  UNL1        0.0013
     24 C         141.1977  139.9963  165.2349 C.ar    1  UNL1       -0.0002
     25 C         141.3717  138.5804  164.7710 C.ar    1  UNL1        0.0013
     26 C         141.3734  138.2667  163.3042 C.ar    1  UNL1        0.0154
     27 C         141.1961  140.3101  166.7017 C.ar    1  UNL1       -0.0040
     28 C         142.4151  140.9041  167.3430 C.ar    1  UNL1       -0.0003
     29 C         142.4135  141.2179  168.8098 C.ar    1  UNL1        0.0011
     30 C         141.1928  140.9377  169.6353 C.ar    1  UNL1        0.0137
     31 C         139.9738  140.3438  168.9940 C.ar    1  UNL1       -0.0031
     32 C         139.9754  140.0300  167.5273 C.ar    1  UNL1       -0.0218
     33 C         138.7564  139.4360  166.8860 C.3     1  UNL1        0.0310
     34 C         141.1911  141.2515  171.1021 C.2     1  UNL1        0.0729
     35 O         142.0272  142.3801  171.6286 O.co2   1  UNL1       -0.5446
     36 O         140.3533  140.4366  172.0425 O.co2   1  UNL1       -0.5446
     37 C         138.2576  139.4506  154.6631 C.3     1  UNL1        0.1183
     38 C         136.8511  139.9707  154.6949 C.ar    1  UNL1        0.0712
     39 N         135.7417  139.1021  155.2092 N.ar    1  UNL1       -0.2471
     40 C         134.3351  139.6223  155.2410 C.ar    1  UNL1        0.0985
     41 C         134.0380  141.0111  154.7585 C.ar    1  UNL1        0.0203
     42 C         135.1475  141.8798  154.2443 C.ar    1  UNL1       -0.0015
     43 C         136.5540  141.3597  154.2124 C.ar    1  UNL1       -0.0069
     44 C         137.6634  142.2283  153.6981 C.3     1  UNL1        0.0323
@<TRIPOS>UNITY_ATOM_ATTR
35 1
charge -1
@<TRIPOS>BOND
     1    19    20    1
     2    20    13    1
     3    13    14   ar
     4    14    15   ar
     5    15    16   ar
     6    16    17   ar
     7    17    18   ar
     8    18     1    1
     9     1     2   am
    10     2     3    2
    11     2     4   am
    12     4    21    1
    13    21    22   ar
    14    22    23   ar
    15    23    24   ar
    16    24    27    1
    17    27    28   ar
    18    28    29   ar
    19    29    30   ar
    20    30    34    1
    21    34    35   ar
    22    34    36   ar
    23    30    31   ar
    24    31    32   ar
    25    32    33    1
    26    24    25   ar
    27    25    26   ar
    28     4     5   am
    29     5     6    2
    30     5     7    1
    31     7     8    1
    32     8     9    1
    33     9    10    1
    34    10    37    1
    35    37    38    1
    36    38    39   ar
    37    39    40   ar
    38    40    41   ar
    39    41    42   ar
    40    42    43   ar
    41    43    44    1
    42    10    11    1
    43    11    12    1
    44    18    13   ar
    45     7     1    1
    46    43    38   ar
    47    26    21   ar
    48    12     7    1
    49    32    27   ar
@<TRIPOS>MOLECULE
*****
 44 49 0 0 0
SMALL
GASTEIGER

@<TRIPOS>ATOM
      1 N         140.0240  141.7805  158.1387 N.am    1  UNL1       -0.2187
      2 C         139.8569  142.3165  159.5297 C.2     1  UNL1        0.3221
      3 O         139.4133  143.7026  159.8931 O.2     1  UNL1       -0.2512
      4 N         140.2111  141.2230  160.4935 N.am    1  UNL1       -0.1907
      5 C         140.5972  140.0113  159.6982 C.2     1  UNL1        0.2529
      6 O         141.0240  138.6874  160.2595 O.2     1  UNL1       -0.2724
      7 C         140.4816  140.3558  158.2428 C.3     1  UNL1        0.1392
      8 C         140.3203  140.8434  156.8335 C.3     1  UNL1        0.0449
      9 C         140.6111  139.9245  155.6841 C.3     1  UNL1        0.0746
     10 N         141.0634  138.5181  155.9440 N.3     1  UNL1       -0.2676
     11 C         141.2247  138.0306  157.3533 C.3     1  UNL1        0.0746
     12 C         140.9339  138.9494  158.5027 C.3     1  UNL1        0.0449
     13 C         138.3745  142.7382  156.3747 C.ar    1  UNL1        0.2582
     14 N         138.1275  143.4942  155.1029 N.ar    1  UNL1       -0.2061
     15 C         139.2829  144.0486  154.3234 C.ar    1  UNL1        0.1228
     16 C         140.6855  143.8469  154.8157 C.ar    1  UNL1        0.1212
     17 N         140.9325  143.0909  156.0874 N.ar    1  UNL1       -0.2227
     18 C         139.7770  142.5365  156.8669 C.ar    1  UNL1        0.1930
     19 C         136.5698  140.9022  156.7234 C.3     1  UNL1        0.2543
     20 O         137.2191  142.1839  157.1542 O.3     1  UNL1       -0.4542
     21 C         140.1841  141.3236  161.9898 C.ar    1  UNL1        0.0622
     22 C         141.4340  141.0753  162.7809 C.ar    1  UNL1        0.0154
     23 C         141.4069  141.1759  164.2773 C.ar    1  UNL1        0.0013
     24 C         140.1299  141.5249  164.9826 C.ar    1  UNL1       -0.0002
     25 C         138.8798  141.7732  164.1914 C.ar    1  UNL1        0.0013
     26 C         138.9070  141.6726  162.6950 C.ar    1  UNL1        0.0154
     27 C         140.1027  141.6255  166.4790 C.ar    1  UNL1       -0.0040
     28 C         140.5674  142.8814  167.1547 C.ar    1  UNL1       -0.0003
     29 C         140.5403  142.9821  168.6511 C.ar    1  UNL1        0.0011
     30 C         140.0485  141.8267  169.4716 C.ar    1  UNL1        0.0137
     31 C         139.5838  140.5707  168.7959 C.ar    1  UNL1       -0.0031
     32 C         139.6109  140.4701  167.2996 C.ar    1  UNL1       -0.0218
     33 C         139.1463  139.2142  166.6238 C.3     1  UNL1        0.0310
     34 C         140.0214  141.9273  170.9680 C.2     1  UNL1        0.0729
     35 O         139.3514  143.0952  171.6292 O.co2   1  UNL1       -0.5446
     36 O         140.6643  140.8599  171.8033 O.co2   1  UNL1       -0.5446
     37 C         141.3542  137.5993  154.7946 C.3     1  UNL1        0.1183
     38 C         141.8574  136.2102  155.0536 C.ar    1  UNL1        0.0712
     39 N         140.9040  135.0522  155.0386 N.ar    1  UNL1       -0.2471
     40 C         141.4071  133.6630  155.2977 C.ar    1  UNL1        0.0985
     41 C         142.8636  133.4318  155.5716 C.ar    1  UNL1        0.0203
     42 C         143.8170  134.5898  155.5865 C.ar    1  UNL1       -0.0015
     43 C         143.3139  135.9789  155.3275 C.ar    1  UNL1       -0.0069
     44 C         144.2673  137.1368  155.3425 C.3     1  UNL1        0.0323
@<TRIPOS>UNITY_ATOM_ATTR
35 1
charge -1
@<TRIPOS>BOND
     1    19    20    1
     2    20    13    1
     3    13    14   ar
     4    14    15   ar
     5    15    16   ar
     6    16    17   ar
     7    17    18   ar
     8    18     1    1
     9     1     2   am
    10     2     3    2
    11     2     4   am
    12     4    21    1
    13    21    22   ar
    14    22    23   ar
    15    23    24   ar
    16    24    27    1
    17    27    28   ar
    18    28    29   ar
    19    29    30   ar
    20    30    34    1
    21    34    35   ar
    22    34    36   ar
    23    30    31   ar
    24    31    32   ar
    25    32    33    1
    26    24    25   ar
    27    25    26   ar
    28     4     5   am
    29     5     6    2
    30     5     7    1
    31     7     8    1
    32     8     9    1
    33     9    10    1
    34    10    37    1
    35    37    38    1
    36    38    39   ar
    37    39    40   ar
    38    40    41   ar
    39    41    42   ar
    40    42    43   ar
    41    43    44    1
    42    10    11    1
    43    11    12    1
    44    18    13   ar
    45     7     1    1
    46    43    38   ar
    47    26    21   ar
    48    12     7    1
    49    32    27   ar
@<TRIPOS>MOLECULE
*****
 44 49 0 0 0
SMALL
GASTEIGER

@<TRIPOS>ATOM
      1 N         140.1301  139.6397  158.1500 N.am    1  UNL1       -0.2187
      2 C         139.7416  140.2946  159.4424 C.2     1  UNL1        0.3221
      3 O         138.7193  141.3796  159.6086 O.2     1  UNL1       -0.2512
      4 N         140.5551  139.6740  160.5394 N.am    1  UNL1       -0.1907
      5 C         141.4462  138.6356  159.9250 C.2     1  UNL1        0.2529
      6 O         142.4277  137.7703  160.6584 O.2     1  UNL1       -0.2724
      7 C         141.1836  138.6144  158.4482 C.3     1  UNL1        0.1392
      8 C         140.8156  138.7066  156.9970 C.3     1  UNL1        0.0449
      9 C         141.4883  137.8164  155.9946 C.3     1  UNL1        0.0746
     10 N         142.5291  136.8339  156.4434 N.3     1  UNL1       -0.2676
     11 C         142.8971  136.7416  157.8946 C.3     1  UNL1        0.0746
     12 C         142.2244  137.6318  158.8970 C.3     1  UNL1        0.0449
     13 C         140.0995  141.1157  156.0122 C.ar    1  UNL1        0.2582
     14 N         139.5338  141.4308  154.6592 N.ar    1  UNL1       -0.2061
     15 C         138.4330  140.5849  154.0909 C.ar    1  UNL1        0.1228
     16 C         137.8980  139.4239  154.8757 C.ar    1  UNL1        0.1212
     17 N         138.4637  139.1089  156.2287 N.ar    1  UNL1       -0.2227
     18 C         139.5644  139.9547  156.7970 C.ar    1  UNL1        0.1930
     19 C         140.8708  143.2313  157.3080 C.3     1  UNL1        0.2543
     20 O         141.2002  141.9616  156.5804 O.3     1  UNL1       -0.4542
     21 C         140.4889  140.0295  161.9951 C.ar    1  UNL1        0.0622
     22 C         139.1780  139.9738  162.7219 C.ar    1  UNL1        0.0154
     23 C         139.1118  140.3293  164.1777 C.ar    1  UNL1        0.0013
     24 C         140.3567  140.7404  164.9066 C.ar    1  UNL1       -0.0002
     25 C         141.6677  140.7961  164.1798 C.ar    1  UNL1        0.0013
     26 C         141.7337  140.4406  162.7240 C.ar    1  UNL1        0.0154
     27 C         140.2905  141.0959  166.3624 C.ar    1  UNL1       -0.0040
     28 C         140.2915  140.0125  167.3998 C.ar    1  UNL1       -0.0003
     29 C         140.2253  140.3679  168.8556 C.ar    1  UNL1        0.0011
     30 C         140.1582  141.8069  169.2739 C.ar    1  UNL1        0.0137
     31 C         140.1573  142.8903  168.2365 C.ar    1  UNL1       -0.0031
     32 C         140.2234  142.5349  166.7808 C.ar    1  UNL1       -0.0218
     33 C         140.2225  143.6183  165.7434 C.3     1  UNL1        0.0310
     34 C         140.0921  142.1624  170.7297 C.2     1  UNL1        0.0729
     35 O         140.8746  141.3670  171.7322 O.co2   1  UNL1       -0.5446
     36 O         139.2434  143.3133  171.1829 O.co2   1  UNL1       -0.5446
     37 C         143.2018  135.9436  155.4409 C.3     1  UNL1        0.1183
     38 C         142.7007  134.5467  155.2229 C.ar    1  UNL1        0.0712
     39 N         142.8811  133.5099  156.2917 N.ar    1  UNL1       -0.2471
     40 C         142.3799  132.1129  156.0737 C.ar    1  UNL1        0.0985
     41 C         141.6985  131.7529  154.7868 C.ar    1  UNL1        0.0203
     42 C         141.5182  132.7898  153.7180 C.ar    1  UNL1       -0.0015
     43 C         142.0193  134.1867  153.9360 C.ar    1  UNL1       -0.0069
     44 C         141.8389  135.2235  152.8672 C.3     1  UNL1        0.0323
@<TRIPOS>UNITY_ATOM_ATTR
35 1
charge -1
@<TRIPOS>BOND
     1    19    20    1
     2    20    13    1
     3    13    14   ar
     4    14    15   ar
     5    15    16   ar
     6    16    17   ar
     7    17    18   ar
     8    18     1    1
     9     1     2   am
    10     2     3    2
    11     2     4   am
    12     4    21    1
    13    21    22   ar
    14    22    23   ar
    15    23    24   ar
    16    24    27    1
    17    27    28   ar
    18    28    29   ar
    19    29    30   ar
    20    30    34    1
    21    34    35   ar
    22    34    36   ar
    23    30    31   ar
    24    31    32   ar
    25    32    33    1
    26    24    25   ar
    27    25    26   ar
    28     4     5   am
    29     5     6    2
    30     5     7    1
    31     7     8    1
    32     8     9    1
    33     9    10    1
    34    10    37    1
    35    37    38    1
    36    38    39   ar
    37    39    40   ar
    38    40    41   ar
    39    41    42   ar
    40    42    43   ar
    41    43    44    1
    42    10    11    1
    43    11    12    1
    44    18    13   ar
    45     7     1    1
    46    43    38   ar
    47    26    21   ar
    48    12     7    1
    49    32    27   ar
