@<TRIPOS>MOLECULE
*****
 31 35 0 0 0
SMALL
GASTEIGER

@<TRIPOS>ATOM
      1 C         140.6682  138.0349  157.3513 C.2     1  UNL1        0.4052
      2 O         139.1983  138.3142  157.2434 O.2     1  UNL1       -0.2262
      3 N         141.3685  138.2005  158.6673 N.am    1  UNL1       -0.2460
      4 C         142.8261  137.9596  158.9269 C.3     1  UNL1        0.0968
      5 C         143.0926  138.2463  160.3750 C.3     1  UNL1        0.0234
      6 C         143.0527  138.5988  161.8324 C.3     1  UNL1        0.0230
      7 C         141.7997  138.6644  161.0103 C.3     1  UNL1        0.0234
      8 C         140.7342  138.6361  159.9549 C.3     1  UNL1        0.0968
      9 O         141.4377  137.5900  156.1430 O.3     1  UNL1       -0.4277
     10 C         141.1181  136.2769  155.4918 C.3     1  UNL1        0.2589
     11 C         144.5693  133.0107  157.7943 C.3     1  UNL1        0.0754
     12 C         143.4195  133.5301  156.9830 C.ar    1  UNL1        0.1546
     13 C         143.0397  134.9714  156.8137 C.ar    1  UNL1        0.0573
     14 C         141.8332  135.0314  155.9247 C.ar    1  UNL1        0.1441
     15 N         141.4671  133.6274  155.5445 N.ar    1  UNL1       -0.0780
     16 O         142.4475  132.6995  156.1985 O.2     1  UNL1       -0.3580
     17 C         143.7530  138.7644  163.1485 C.3     1  UNL1        0.0898
     18 N         143.0227  139.3564  164.3174 N.am    1  UNL1       -0.3009
     19 C         141.9606  138.5624  165.0185 C.2     1  UNL1        0.2456
     20 O         141.6288  137.1764  164.5507 O.2     1  UNL1       -0.2702
     21 H         143.2405  140.2661  164.6245 H       1  UNL1        0.1497
     22 C         141.2303  139.1544  166.1874 C.2     1  UNL1        0.0525
     23 C         139.7306  139.1785  166.2007 C.2     1  UNL1       -0.0153
     24 C         139.0004  139.7705  167.3696 C.3     1  UNL1        0.0726
     25 C         139.7699  140.3384  168.5252 C.2     1  UNL1        0.0933
     26 N         139.3280  140.9827  169.8057 N.am    1  UNL1       -0.1431
     27 C         140.5546  141.3568  170.5837 C.2     1  UNL1        0.4298
     28 O         140.5774  142.0265  171.9258 O.2     1  UNL1       -0.2238
     29 O         141.7546  140.9437  169.7841 O.3     1  UNL1       -0.4079
     30 C         141.2697  140.3143  168.5118 C.2     1  UNL1        0.1618
     31 C         141.9999  139.7223  167.3430 C.2     1  UNL1        0.0429
@<TRIPOS>BOND
     1    11    12    1
     2    12    13   ar
     3    13    14   ar
     4    14    10    1
     5    10     9    1
     6     9     1    1
     7     1     2    2
     8     1     3   am
     9     3     4    1
    10     5     4    1
    11     5     6    1
    12     6    17    1
    13    17    18    1
    14    18    19   am
    15    19    20    2
    16    19    22    1
    17    22    23    2
    18    23    24    1
    19    24    25    1
    20    25    26    2
    21    26    27    1
    22    27    28    2
    23    27    29    1
    24    29    30    1
    25    30    31    2
    26     6     7    1
    27     7     8    1
    28    14    15   ar
    29    15    16   ar
    30    16    12   ar
    31     8     3    1
    32     7     5    1
    33    31    22    1
    34    30    25    1
    35    18    21    1
@<TRIPOS>MOLECULE
*****
 31 35 0 0 0
SMALL
GASTEIGER

@<TRIPOS>ATOM
      1 C         141.2857  137.6389  157.2256 C.2     1  UNL1        0.4052
      2 O         140.7255  137.4887  155.8423 O.2     1  UNL1       -0.2262
      3 N         140.5648  138.4765  158.2399 N.am    1  UNL1       -0.2460
      4 C         141.0011  138.7178  159.6546 C.3     1  UNL1        0.0968
      5 C         139.9869  139.6103  160.3066 C.3     1  UNL1        0.0234
      6 C         138.8311  140.4907  160.6791 C.3     1  UNL1        0.0230
      7 C         138.9239  139.9204  159.2949 C.3     1  UNL1        0.0234
      8 C         139.2810  139.2197  158.0176 C.3     1  UNL1        0.0968
      9 O         142.5668  136.9515  157.5947 O.3     1  UNL1       -0.4277
     10 C         143.2417  136.0437  156.6095 C.3     1  UNL1        0.2589
     11 C         141.0794  131.5997  154.7507 C.3     1  UNL1        0.0754
     12 C         141.8090  132.5722  155.6293 C.ar    1  UNL1        0.1546
     13 C         142.0294  134.0275  155.3406 C.ar    1  UNL1        0.0573
     14 C         142.8029  134.6148  156.4836 C.ar    1  UNL1        0.1441
     15 N         143.0606  133.5226  157.4788 N.ar    1  UNL1       -0.0780
     16 O         142.4464  132.2601  156.9508 O.2     1  UNL1       -0.3580
     17 C         138.1102  141.3282  161.6934 C.3     1  UNL1        0.0898
     18 N         138.0856  140.9071  163.1329 N.am    1  UNL1       -0.3009
     19 C         139.2526  141.2137  164.0240 C.2     1  UNL1        0.2456
     20 O         140.4441  141.9414  163.4757 O.2     1  UNL1       -0.2702
     21 H         137.3036  140.4294  163.4928 H       1  UNL1        0.1497
     22 C         139.2280  140.7925  165.4636 C.2     1  UNL1        0.0525
     23 C         138.4306  139.5924  165.8804 C.2     1  UNL1       -0.0153
     24 C         138.4061  139.1713  167.3198 C.3     1  UNL1        0.0726
     25 C         139.1790  139.9504  168.3424 C.2     1  UNL1        0.0933
     26 N         139.3435  139.7760  169.8232 N.am    1  UNL1       -0.1431
     27 C         140.2426  140.8684  170.3215 C.2     1  UNL1        0.4298
     28 O         140.6747  141.0751  171.7430 O.2     1  UNL1       -0.2238
     29 O         140.6338  141.7178  169.1487 O.3     1  UNL1       -0.4079
     30 C         139.9764  141.1505  167.9256 C.2     1  UNL1        0.1618
     31 C         140.0010  141.5716  166.4862 C.2     1  UNL1        0.0429
@<TRIPOS>BOND
     1    11    12    1
     2    12    13   ar
     3    13    14   ar
     4    14    10    1
     5    10     9    1
     6     9     1    1
     7     1     2    2
     8     1     3   am
     9     3     4    1
    10     5     4    1
    11     5     6    1
    12     6    17    1
    13    17    18    1
    14    18    19   am
    15    19    20    2
    16    19    22    1
    17    22    23    2
    18    23    24    1
    19    24    25    1
    20    25    26    2
    21    26    27    1
    22    27    28    2
    23    27    29    1
    24    29    30    1
    25    30    31    2
    26     6     7    1
    27     7     8    1
    28    14    15   ar
    29    15    16   ar
    30    16    12   ar
    31     8     3    1
    32     7     5    1
    33    31    22    1
    34    30    25    1
    35    18    21    1
@<TRIPOS>MOLECULE
*****
 31 35 0 0 0
SMALL
GASTEIGER

@<TRIPOS>ATOM
      1 C         142.2318  138.7644  157.2968 C.2     1  UNL1        0.4052
      2 O         143.7147  138.9789  157.3676 O.2     1  UNL1       -0.2262
      3 N         141.4370  138.5977  158.5579 N.am    1  UNL1       -0.2460
      4 C         139.9558  138.3772  158.6439 C.3     1  UNL1        0.0968
      5 C         139.5873  138.2654  160.0937 C.3     1  UNL1        0.0234
      6 C         139.5257  138.1966  161.5908 C.3     1  UNL1        0.0230
      7 C         140.8407  138.4166  160.9036 C.3     1  UNL1        0.0234
      8 C         141.9839  138.6220  159.9545 C.3     1  UNL1        0.0968
      9 O         141.5437  138.7168  155.9648 O.3     1  UNL1       -0.4277
     10 C         142.0706  137.8249  154.8799 C.3     1  UNL1        0.2589
     11 C         141.9930  132.6365  155.8571 C.3     1  UNL1        0.0754
     12 C         142.4735  134.0429  155.6538 C.ar    1  UNL1        0.1546
     13 C         141.6173  135.2266  155.3137 C.ar    1  UNL1        0.0573
     14 C         142.5091  136.4277  155.2046 C.ar    1  UNL1        0.1441
     15 N         143.9165  135.9863  155.4773 N.ar    1  UNL1       -0.0780
     16 O         143.8945  134.5124  155.7549 O.2     1  UNL1       -0.3580
     17 C         138.7309  138.0298  162.8520 C.3     1  UNL1        0.0898
     18 N         139.2384  138.6069  164.1402 N.am    1  UNL1       -0.3009
     19 C         138.7957  139.9721  164.5763 C.2     1  UNL1        0.2456
     20 O         137.8456  140.7603  163.7242 O.2     1  UNL1       -0.2702
     21 H         139.8620  138.0896  164.6995 H       1  UNL1        0.1497
     22 C         139.3032  140.5492  165.8645 C.2     1  UNL1        0.0525
     23 C         139.9009  141.9248  165.8861 C.2     1  UNL1       -0.0153
     24 C         140.4084  142.5019  167.1743 C.3     1  UNL1        0.0726
     25 C         140.3181  141.7033  168.4409 C.2     1  UNL1        0.0933
     26 N         140.7320  142.0069  169.8504 N.am    1  UNL1       -0.1431
     27 C         140.3900  140.8189  170.6999 C.2     1  UNL1        0.4298
     28 O         140.6308  140.6910  172.1749 O.2     1  UNL1       -0.2238
     29 O         139.7648  139.7811  169.8154 O.3     1  UNL1       -0.4079
     30 C         139.7204  140.3278  168.4193 C.2     1  UNL1        0.1618
     31 C         139.2130  139.7507  167.1311 C.2     1  UNL1        0.0429
@<TRIPOS>BOND
     1    11    12    1
     2    12    13   ar
     3    13    14   ar
     4    14    10    1
     5    10     9    1
     6     9     1    1
     7     1     2    2
     8     1     3   am
     9     3     4    1
    10     5     4    1
    11     5     6    1
    12     6    17    1
    13    17    18    1
    14    18    19   am
    15    19    20    2
    16    19    22    1
    17    22    23    2
    18    23    24    1
    19    24    25    1
    20    25    26    2
    21    26    27    1
    22    27    28    2
    23    27    29    1
    24    29    30    1
    25    30    31    2
    26     6     7    1
    27     7     8    1
    28    14    15   ar
    29    15    16   ar
    30    16    12   ar
    31     8     3    1
    32     7     5    1
    33    31    22    1
    34    30    25    1
    35    18    21    1
@<TRIPOS>MOLECULE
*****
 31 35 0 0 0
SMALL
GASTEIGER

@<TRIPOS>ATOM
      1 C         138.0735  140.7120  157.6705 C.2     1  UNL1        0.4052
      2 O         139.2119  140.7502  156.6944 O.2     1  UNL1       -0.2262
      3 N         138.2452  140.0322  158.9966 N.am    1  UNL1       -0.2460
      4 C         137.2026  139.9144  160.0685 C.3     1  UNL1        0.0968
      5 C         137.8027  139.1602  161.2179 C.3     1  UNL1        0.0234
      6 C         138.6581  138.3974  162.1856 C.3     1  UNL1        0.0230
      7 C         139.2162  138.8120  160.8564 C.3     1  UNL1        0.0234
      8 C         139.4897  139.3508  159.4835 C.3     1  UNL1        0.0968
      9 O         136.7636  141.3535  157.3206 O.3     1  UNL1       -0.4277
     10 C         135.9030  140.7624  156.2435 C.3     1  UNL1        0.2589
     11 C         130.6304  140.5939  156.0177 C.3     1  UNL1        0.0754
     12 C         132.0497  140.3360  156.4291 C.ar    1  UNL1        0.1546
     13 C         133.2716  140.9518  155.8145 C.ar    1  UNL1        0.0573
     14 C         134.4732  140.4134  156.5328 C.ar    1  UNL1        0.1441
     15 N         133.9941  139.4648  157.5913 N.ar    1  UNL1       -0.0780
     16 O         132.4962  139.4169  157.5272 O.2     1  UNL1       -0.3580
     17 C         138.8297  137.7176  163.5116 C.3     1  UNL1        0.0898
     18 N         138.9962  138.5357  164.7578 N.am    1  UNL1       -0.3009
     19 C         140.3704  138.8670  165.2595 C.2     1  UNL1        0.2456
     20 O         141.5782  138.3803  164.5150 O.2     1  UNL1       -0.2702
     21 H         138.2035  138.8552  165.2465 H       1  UNL1        0.1497
     22 C         140.5369  139.6851  166.5058 C.2     1  UNL1        0.0525
     23 C         139.4261  139.7543  167.5114 C.2     1  UNL1       -0.0153
     24 C         139.5926  140.5724  168.7576 C.3     1  UNL1        0.0726
     25 C         140.8698  141.3212  168.9981 C.2     1  UNL1        0.0933
     26 N         141.3193  142.2031  170.1253 N.am    1  UNL1       -0.1431
     27 C         142.7079  142.6788  169.8163 C.2     1  UNL1        0.4298
     28 O         143.5415  143.5835  170.6746 O.2     1  UNL1       -0.2238
     29 O         143.1166  142.0910  168.4981 O.3     1  UNL1       -0.4079
     30 C         141.9806  141.2520  167.9925 C.2     1  UNL1        0.1618
     31 C         141.8141  140.4340  166.7463 C.2     1  UNL1        0.0429
@<TRIPOS>BOND
     1    11    12    1
     2    12    13   ar
     3    13    14   ar
     4    14    10    1
     5    10     9    1
     6     9     1    1
     7     1     2    2
     8     1     3   am
     9     3     4    1
    10     5     4    1
    11     5     6    1
    12     6    17    1
    13    17    18    1
    14    18    19   am
    15    19    20    2
    16    19    22    1
    17    22    23    2
    18    23    24    1
    19    24    25    1
    20    25    26    2
    21    26    27    1
    22    27    28    2
    23    27    29    1
    24    29    30    1
    25    30    31    2
    26     6     7    1
    27     7     8    1
    28    14    15   ar
    29    15    16   ar
    30    16    12   ar
    31     8     3    1
    32     7     5    1
    33    31    22    1
    34    30    25    1
    35    18    21    1
@<TRIPOS>MOLECULE
*****
 31 35 0 0 0
SMALL
GASTEIGER

@<TRIPOS>ATOM
      1 C         143.0094  139.1395  158.0816 C.2     1  UNL1        0.4052
      2 O         142.5438  140.0225  156.9619 O.2     1  UNL1       -0.2262
      3 N         143.4969  139.7476  159.3632 N.am    1  UNL1       -0.2460
      4 C         143.9908  138.9962  160.5638 C.3     1  UNL1        0.0968
      5 C         144.3753  139.9982  161.6118 C.3     1  UNL1        0.0234
      6 C         144.6693  141.2101  162.4453 C.3     1  UNL1        0.0230
      7 C         144.1190  141.3688  161.0589 C.3     1  UNL1        0.0234
      8 C         143.5762  141.2140  159.6692 C.3     1  UNL1        0.0968
      9 O         142.9876  137.6484  157.9196 O.3     1  UNL1       -0.4277
     10 C         142.2680  137.0308  156.7574 C.3     1  UNL1        0.2589
     11 C         141.4748  132.2087  154.7577 C.3     1  UNL1        0.0754
     12 C         141.9947  133.3363  155.5993 C.ar    1  UNL1        0.1546
     13 C         141.5958  134.7778  155.4858 C.ar    1  UNL1        0.0573
     14 C         142.3592  135.5527  156.5185 C.ar    1  UNL1        0.1441
     15 N         143.2300  134.5902  157.2703 N.ar    1  UNL1       -0.0780
     16 O         143.0047  133.2204  156.7022 O.2     1  UNL1       -0.3580
     17 C         145.1568  141.8183  163.7269 C.3     1  UNL1        0.0898
     18 N         144.2047  142.0297  164.8666 N.am    1  UNL1       -0.3009
     19 C         143.6349  140.8497  165.5966 C.2     1  UNL1        0.2456
     20 O         144.0172  139.4583  165.1870 O.2     1  UNL1       -0.2702
     21 H         143.9538  142.9429  165.1354 H       1  UNL1        0.1497
     22 C         142.6828  141.0611  166.7363 C.2     1  UNL1        0.0525
     23 C         142.8635  142.2312  167.6573 C.2     1  UNL1       -0.0153
     24 C         141.9114  142.4426  168.7969 C.3     1  UNL1        0.0726
     25 C         140.7786  141.4839  169.0155 C.2     1  UNL1        0.0933
     26 N         139.6896  141.4352  170.0460 N.am    1  UNL1       -0.1431
     27 C         138.8360  140.2350  169.7618 C.2     1  UNL1        0.4298
     28 O         137.6322  139.8036  170.5460 O.2     1  UNL1       -0.2238
     29 O         139.3973  139.5420  168.5557 O.3     1  UNL1       -0.4079
     30 C         140.5979  140.3139  168.0945 C.2     1  UNL1        0.1618
     31 C         141.5500  140.1025  166.9549 C.2     1  UNL1        0.0429
@<TRIPOS>BOND
     1    11    12    1
     2    12    13   ar
     3    13    14   ar
     4    14    10    1
     5    10     9    1
     6     9     1    1
     7     1     2    2
     8     1     3   am
     9     3     4    1
    10     5     4    1
    11     5     6    1
    12     6    17    1
    13    17    18    1
    14    18    19   am
    15    19    20    2
    16    19    22    1
    17    22    23    2
    18    23    24    1
    19    24    25    1
    20    25    26    2
    21    26    27    1
    22    27    28    2
    23    27    29    1
    24    29    30    1
    25    30    31    2
    26     6     7    1
    27     7     8    1
    28    14    15   ar
    29    15    16   ar
    30    16    12   ar
    31     8     3    1
    32     7     5    1
    33    31    22    1
    34    30    25    1
    35    18    21    1
@<TRIPOS>MOLECULE
*****
 31 35 0 0 0
SMALL
GASTEIGER

@<TRIPOS>ATOM
      1 C         142.9266  139.7557  158.3849 C.2     1  UNL1        0.4052
      2 O         143.7245  138.7209  157.6481 O.2     1  UNL1       -0.2262
      3 N         142.1865  139.3822  159.6350 N.am    1  UNL1       -0.2460
      4 C         141.3519  140.3038  160.4741 C.3     1  UNL1        0.0968
      5 C         140.8007  139.5126  161.6232 C.3     1  UNL1        0.0234
      6 C         140.4066  138.4840  162.6413 C.3     1  UNL1        0.0230
      7 C         141.2946  138.1022  161.4942 C.3     1  UNL1        0.0234
      8 C         142.1511  138.0216  160.2654 C.3     1  UNL1        0.0968
      9 O         142.8690  141.1639  157.8715 O.3     1  UNL1       -0.4277
     10 C         143.8614  142.1796  158.3549 C.3     1  UNL1        0.2589
     11 C         144.1488  143.7827  163.3776 C.3     1  UNL1        0.0754
     12 C         143.7406  143.6642  161.9390 C.ar    1  UNL1        0.1546
     13 C         144.3032  142.6974  160.9397 C.ar    1  UNL1        0.0573
     14 C         143.6085  142.9273  159.6304 C.ar    1  UNL1        0.1441
     15 N         142.6164  144.0362  159.8205 N.ar    1  UNL1       -0.0780
     16 O         142.6980  144.4916  161.2473 O.2     1  UNL1       -0.3580
     17 C         139.6665  138.1105  163.8914 C.3     1  UNL1        0.0898
     18 N         139.7230  139.0072  165.0926 N.am    1  UNL1       -0.3009
     19 C         140.9619  139.0528  165.9369 C.2     1  UNL1        0.2456
     20 O         142.1445  138.2019  165.5800 O.2     1  UNL1       -0.2702
     21 H         138.9468  139.5657  165.3269 H       1  UNL1        0.1497
     22 C         141.0183  139.9495  167.1382 C.2     1  UNL1        0.0525
     23 C         139.8414  140.0380  168.0639 C.2     1  UNL1       -0.0153
     24 C         139.8979  140.9346  169.2651 C.3     1  UNL1        0.0726
     25 C         141.1312  141.7427  169.5405 C.2     1  UNL1        0.0933
     26 N         141.4758  142.7061  170.6375 N.am    1  UNL1       -0.1431
     27 C         142.8656  143.2129  170.3897 C.2     1  UNL1        0.4298
     28 O         143.6103  144.1971  171.2422 O.2     1  UNL1       -0.2238
     29 O         143.3800  142.5627  169.1396 O.3     1  UNL1       -0.4079
     30 C         142.3082  141.6541  168.6148 C.2     1  UNL1        0.1618
     31 C         142.2517  140.7575  167.4136 C.2     1  UNL1        0.0429
@<TRIPOS>BOND
     1    11    12    1
     2    12    13   ar
     3    13    14   ar
     4    14    10    1
     5    10     9    1
     6     9     1    1
     7     1     2    2
     8     1     3   am
     9     3     4    1
    10     5     4    1
    11     5     6    1
    12     6    17    1
    13    17    18    1
    14    18    19   am
    15    19    20    2
    16    19    22    1
    17    22    23    2
    18    23    24    1
    19    24    25    1
    20    25    26    2
    21    26    27    1
    22    27    28    2
    23    27    29    1
    24    29    30    1
    25    30    31    2
    26     6     7    1
    27     7     8    1
    28    14    15   ar
    29    15    16   ar
    30    16    12   ar
    31     8     3    1
    32     7     5    1
    33    31    22    1
    34    30    25    1
    35    18    21    1
@<TRIPOS>MOLECULE
*****
 31 35 0 0 0
SMALL
GASTEIGER

@<TRIPOS>ATOM
      1 C         142.2957  138.4194  157.6007 C.2     1  UNL1        0.4052
      2 O         142.6515  139.3685  156.4949 O.2     1  UNL1       -0.2262
      3 N         142.8368  138.6406  158.9821 N.am    1  UNL1       -0.2460
      4 C         142.5697  137.7808  160.1818 C.3     1  UNL1        0.0968
      5 C         143.3078  138.3694  161.3475 C.3     1  UNL1        0.0234
      6 C         144.1380  139.1727  162.3042 C.3     1  UNL1        0.0230
      7 C         144.0310  139.5930  160.8682 C.3     1  UNL1        0.0234
      8 C         143.7399  139.7606  159.4064 C.3     1  UNL1        0.0968
      9 O         141.3988  137.2491  157.3251 O.3     1  UNL1       -0.4277
     10 C         141.6596  136.3671  156.1400 C.3     1  UNL1        0.2589
     11 C         144.8477  132.5072  157.8183 C.3     1  UNL1        0.0754
     12 C         143.7546  133.2451  157.1037 C.ar    1  UNL1        0.1546
     13 C         143.4626  134.7122  157.2147 C.ar    1  UNL1        0.0573
     14 C         142.2892  135.0193  156.3323 C.ar    1  UNL1        0.1441
     15 N         141.8560  133.7421  155.6759 N.ar    1  UNL1       -0.0780
     16 O         142.7616  132.6455  156.1527 O.2     1  UNL1       -0.3580
     17 C         144.6791  139.3940  163.6856 C.3     1  UNL1        0.0898
     18 N         143.7591  139.8155  164.7928 N.am    1  UNL1       -0.3009
     19 C         143.4932  141.2720  165.0336 C.2     1  UNL1        0.2456
     20 O         144.1473  142.3070  164.1670 O.2     1  UNL1       -0.2702
     21 H         143.3297  139.1362  165.3616 H       1  UNL1        0.1497
     22 C         142.5732  141.6935  166.1408 C.2     1  UNL1        0.0525
     23 C         141.3394  142.4876  165.8294 C.2     1  UNL1       -0.0153
     24 C         140.4195  142.9091  166.9367 C.3     1  UNL1        0.0726
     25 C         140.7333  142.5364  168.3553 C.2     1  UNL1        0.0933
     26 N         140.0192  142.8086  169.6461 N.am    1  UNL1       -0.1431
     27 C         140.8116  142.1826  170.7552 C.2     1  UNL1        0.4298
     28 O         140.4617  142.2107  172.2136 O.2     1  UNL1       -0.2238
     29 O         142.0155  141.5235  170.1499 O.3     1  UNL1       -0.4079
     30 C         141.9671  141.7422  168.6667 C.2     1  UNL1        0.1618
     31 C         142.8870  141.3207  167.5595 C.2     1  UNL1        0.0429
@<TRIPOS>BOND
     1    11    12    1
     2    12    13   ar
     3    13    14   ar
     4    14    10    1
     5    10     9    1
     6     9     1    1
     7     1     2    2
     8     1     3   am
     9     3     4    1
    10     5     4    1
    11     5     6    1
    12     6    17    1
    13    17    18    1
    14    18    19   am
    15    19    20    2
    16    19    22    1
    17    22    23    2
    18    23    24    1
    19    24    25    1
    20    25    26    2
    21    26    27    1
    22    27    28    2
    23    27    29    1
    24    29    30    1
    25    30    31    2
    26     6     7    1
    27     7     8    1
    28    14    15   ar
    29    15    16   ar
    30    16    12   ar
    31     8     3    1
    32     7     5    1
    33    31    22    1
    34    30    25    1
    35    18    21    1
@<TRIPOS>MOLECULE
*****
 31 35 0 0 0
SMALL
GASTEIGER

@<TRIPOS>ATOM
      1 C         140.5550  139.0630  158.5240 C.2     1  UNL1        0.4052
      2 O         141.1376  138.9339  157.1477 O.2     1  UNL1       -0.2262
      3 N         141.4607  139.1618  159.7156 N.am    1  UNL1       -0.2460
      4 C         141.0257  139.2943  161.1450 C.3     1  UNL1        0.0968
      5 C         142.2566  139.3598  161.9998 C.3     1  UNL1        0.0234
      6 C         143.6387  139.3993  162.5813 C.3     1  UNL1        0.0230
      7 C         143.4522  139.2677  161.0987 C.3     1  UNL1        0.0234
      8 C         142.9603  139.1454  159.6870 C.3     1  UNL1        0.0968
      9 O         139.0667  139.0934  158.7085 O.3     1  UNL1       -0.4277
     10 C         138.3197  140.3866  158.5679 C.3     1  UNL1        0.2589
     11 C         137.5516  142.2057  163.4649 C.3     1  UNL1        0.0754
     12 C         137.8383  142.1463  161.9937 C.ar    1  UNL1        0.1546
     13 C         137.8643  140.9064  161.1499 C.ar    1  UNL1        0.0573
     14 C         138.1913  141.3101  159.7429 C.ar    1  UNL1        0.1441
     15 N         138.3674  142.7995  159.7169 N.ar    1  UNL1       -0.0780
     16 O         138.1492  143.3163  161.1081 O.2     1  UNL1       -0.3580
     17 C         144.5444  139.4980  163.7728 C.3     1  UNL1        0.0898
     18 N         144.0217  140.0425  165.0692 N.am    1  UNL1       -0.3009
     19 C         143.0364  139.2476  165.8736 C.2     1  UNL1        0.2456
     20 O         142.5738  137.9081  165.3819 O.2     1  UNL1       -0.2702
     21 H         144.3253  140.9217  165.3919 H       1  UNL1        0.1497
     22 C         142.5137  139.7921  167.1699 C.2     1  UNL1        0.0525
     23 C         142.7937  139.0696  168.4542 C.2     1  UNL1       -0.0153
     24 C         142.2710  139.6141  169.7505 C.3     1  UNL1        0.0726
     25 C         141.4683  140.8811  169.7624 C.2     1  UNL1        0.0933
     26 N         140.8270  141.6526  170.8776 N.am    1  UNL1       -0.1431
     27 C         140.1506  142.8519  170.2825 C.2     1  UNL1        0.4298
     28 O         139.3853  143.8978  171.0378 O.2     1  UNL1       -0.2238
     29 O         140.3739  142.8216  168.7995 O.3     1  UNL1       -0.4079
     30 C         141.1882  141.6037  168.4781 C.2     1  UNL1        0.1618
     31 C         141.7109  141.0592  167.1819 C.2     1  UNL1        0.0429
@<TRIPOS>BOND
     1    11    12    1
     2    12    13   ar
     3    13    14   ar
     4    14    10    1
     5    10     9    1
     6     9     1    1
     7     1     2    2
     8     1     3   am
     9     3     4    1
    10     5     4    1
    11     5     6    1
    12     6    17    1
    13    17    18    1
    14    18    19   am
    15    19    20    2
    16    19    22    1
    17    22    23    2
    18    23    24    1
    19    24    25    1
    20    25    26    2
    21    26    27    1
    22    27    28    2
    23    27    29    1
    24    29    30    1
    25    30    31    2
    26     6     7    1
    27     7     8    1
    28    14    15   ar
    29    15    16   ar
    30    16    12   ar
    31     8     3    1
    32     7     5    1
    33    31    22    1
    34    30    25    1
    35    18    21    1
@<TRIPOS>MOLECULE
*****
 31 35 0 0 0
SMALL
GASTEIGER

@<TRIPOS>ATOM
      1 C         140.2887  138.6430  158.2088 C.2     1  UNL1        0.4052
      2 O         139.2133  138.6266  157.1632 O.2     1  UNL1       -0.2262
      3 N         139.9218  138.6064  159.6628 N.am    1  UNL1       -0.2460
      4 C         140.8821  138.6174  160.8150 C.3     1  UNL1        0.0968
      5 C         140.0838  138.5701  162.0841 C.3     1  UNL1        0.0234
      6 C         139.0393  138.5184  163.1593 C.3     1  UNL1        0.0230
      7 C         138.6302  138.5300  161.7162 C.3     1  UNL1        0.0234
      8 C         138.5301  138.5524  160.2198 C.3     1  UNL1        0.0968
      9 O         141.7311  138.6961  157.8004 O.3     1  UNL1       -0.4277
     10 C         142.5854  137.4674  157.9033 C.3     1  UNL1        0.2589
     11 C         143.0635  132.8057  155.4702 C.3     1  UNL1        0.0754
     12 C         142.5842  134.1768  155.8450 C.ar    1  UNL1        0.1546
     13 C         143.1402  135.0359  156.9417 C.ar    1  UNL1        0.0573
     14 C         142.3645  136.3195  156.9633 C.ar    1  UNL1        0.1441
     15 N         141.3291  136.2538  155.8800 N.ar    1  UNL1       -0.0780
     16 O         141.4649  134.9295  155.1888 O.2     1  UNL1       -0.3580
     17 C         138.6723  138.4817  164.6133 C.3     1  UNL1        0.0898
     18 N         139.4838  139.2535  165.6113 N.am    1  UNL1       -0.3009
     19 C         139.0386  139.3296  167.0417 C.2     1  UNL1        0.2456
     20 O         137.7819  138.6341  167.4741 O.2     1  UNL1       -0.2702
     21 H         140.3086  139.7100  165.3275 H       1  UNL1        0.1497
     22 C         139.8501  140.1014  168.0397 C.2     1  UNL1        0.0525
     23 C         139.2773  140.4152  169.3900 C.2     1  UNL1       -0.0153
     24 C         140.0888  141.1869  170.3879 C.3     1  UNL1        0.0726
     25 C         141.4731  141.6448  170.0356 C.2     1  UNL1        0.0933
     26 N         142.5017  142.4169  170.8074 N.am    1  UNL1       -0.1431
     27 C         143.7102  142.5803  169.9341 C.2     1  UNL1        0.4298
     28 O         144.9780  143.2902  170.3068 O.2     1  UNL1       -0.2238
     29 O         143.4285  141.9091  168.6225 O.3     1  UNL1       -0.4079
     30 C         142.0458  141.3309  168.6853 C.2     1  UNL1        0.1618
     31 C         141.2344  140.5593  167.6873 C.2     1  UNL1        0.0429
@<TRIPOS>BOND
     1    11    12    1
     2    12    13   ar
     3    13    14   ar
     4    14    10    1
     5    10     9    1
     6     9     1    1
     7     1     2    2
     8     1     3   am
     9     3     4    1
    10     5     4    1
    11     5     6    1
    12     6    17    1
    13    17    18    1
    14    18    19   am
    15    19    20    2
    16    19    22    1
    17    22    23    2
    18    23    24    1
    19    24    25    1
    20    25    26    2
    21    26    27    1
    22    27    28    2
    23    27    29    1
    24    29    30    1
    25    30    31    2
    26     6     7    1
    27     7     8    1
    28    14    15   ar
    29    15    16   ar
    30    16    12   ar
    31     8     3    1
    32     7     5    1
    33    31    22    1
    34    30    25    1
    35    18    21    1
