@<TRIPOS>MOLECULE
*****
 34 37 0 0 0
SMALL
GASTEIGER

@<TRIPOS>ATOM
      1 S         140.6940  144.5544  160.0391 S.O2    1  UNL1        0.0768
      2 O         139.9953  145.7450  160.6258 O.2     1  UNL1       -0.1498
      3 O         141.3926  143.3637  159.4525 O.2     1  UNL1       -0.1498
      4 O         141.5811  146.2569  157.7339 O.2     1  UNL1       -0.2509
      5 C         140.2828  145.5093  157.6581 C.2     1  UNL1        0.3231
      6 N         139.4282  145.6130  156.4298 N.am    1  UNL1       -0.2671
      7 N         139.8393  144.6580  158.8108 N.am    1  UNL1       -0.1690
      8 H         138.5762  145.1223  156.3801 H       1  UNL1        0.1565
      9 H         138.9872  144.1673  158.7611 H       1  UNL1        0.1781
     10 C         139.8718  146.4643  155.2772 C.ar    1  UNL1        0.0516
     11 C         140.6559  145.8551  154.1530 C.ar    1  UNL1        0.0147
     12 C         141.0995  146.7064  153.0003 C.ar    1  UNL1        0.0013
     13 C         140.7589  148.1669  152.9719 C.ar    1  UNL1        0.0001
     14 C         139.9747  148.7762  154.0962 C.ar    1  UNL1        0.0012
     15 C         139.6341  150.2367  154.0678 C.ar    1  UNL1        0.0000
     16 C         138.8500  150.8459  155.1920 C.ar    1  UNL1        0.0000
     17 C         138.4065  149.9946  156.3446 C.ar    1  UNL1        0.0000
     18 C         138.7470  148.5341  156.3730 C.ar    1  UNL1        0.0012
     19 C         139.5312  147.9249  155.2488 C.ar    1  UNL1        0.0135
     20 C         141.5486  144.4507  161.2674 C.ar    1  UNL1        0.1255
     21 C         141.2709  145.3296  162.4508 C.ar    1  UNL1        0.0233
     22 C         142.1256  145.2259  163.6791 C.ar    1  UNL1        0.0383
     23 C         143.2581  144.2432  163.7240 C.ar    1  UNL1        0.1386
     24 C         143.5358  143.3643  162.5407 C.ar    1  UNL1        0.0383
     25 C         142.6811  143.4681  161.3123 C.ar    1  UNL1        0.0233
     26 O         144.1127  144.1395  164.9523 O.3     1  UNL1       -0.4754
     27 C         144.1000  142.8827  165.7710 C.3     1  UNL1        0.2068
     28 C         142.8174  142.3953  166.3770 C.3     1  UNL1        0.0646
     29 C         141.8958  141.5209  165.5795 C.3     1  UNL1        0.0759
     30 N         140.6795  142.1100  164.9285 N.3     1  UNL1       -0.2726
     31 C         140.1555  141.7670  163.5655 C.3     1  UNL1        0.0721
     32 C         138.9259  142.5905  163.3209 C.3     1  UNL1        0.0188
     33 C         138.6899  143.4424  164.5328 C.3     1  UNL1        0.0188
     34 C         139.7737  143.1454  165.5263 C.3     1  UNL1        0.0721
@<TRIPOS>BOND
     1     4     5    2
     2     5     6   am
     3     6    10    1
     4    10    11   ar
     5    11    12   ar
     6    12    13   ar
     7    13    14   ar
     8    14    15   ar
     9    15    16   ar
    10    16    17   ar
    11    17    18   ar
    12    18    19   ar
    13     5     7   am
    14     7     1    1
    15     1     2    2
    16     1     3    2
    17     1    20    1
    18    20    21   ar
    19    21    22   ar
    20    22    23   ar
    21    23    26    1
    22    26    27    1
    23    27    28    1
    24    28    29    1
    25    29    30    1
    26    30    31    1
    27    31    32    1
    28    32    33    1
    29    33    34    1
    30    23    24   ar
    31    24    25   ar
    32    19    10   ar
    33    25    20   ar
    34    19    14   ar
    35    34    30    1
    36     6     8    1
    37     7     9    1
@<TRIPOS>MOLECULE
*****
 34 37 0 0 0
SMALL
GASTEIGER

@<TRIPOS>ATOM
      1 S         141.1701  144.3578  159.6032 S.O2    1  UNL1        0.0768
      2 O         140.7663  145.5273  160.4512 O.2     1  UNL1       -0.1498
      3 O         141.5740  143.1883  158.7552 O.2     1  UNL1       -0.1498
      4 O         141.9178  146.0543  157.2446 O.2     1  UNL1       -0.2509
      5 C         140.5038  145.5817  157.4105 C.2     1  UNL1        0.3231
      6 N         139.4637  145.9573  156.3970 N.am    1  UNL1       -0.2671
      7 N         140.1300  144.7335  158.5898 N.am    1  UNL1       -0.1690
      8 H         138.5357  145.6472  156.5059 H       1  UNL1        0.1565
      9 H         139.2020  144.4233  158.6987 H       1  UNL1        0.1781
     10 C         139.8375  146.8056  155.2177 C.ar    1  UNL1        0.0516
     11 C         140.5978  146.2049  154.0727 C.ar    1  UNL1        0.0147
     12 C         140.9716  147.0531  152.8934 C.ar    1  UNL1        0.0013
     13 C         140.5851  148.5020  152.8591 C.ar    1  UNL1        0.0001
     14 C         139.8248  149.1028  154.0041 C.ar    1  UNL1        0.0012
     15 C         139.4384  150.5517  153.9698 C.ar    1  UNL1        0.0000
     16 C         138.6781  151.1524  155.1148 C.ar    1  UNL1        0.0000
     17 C         138.3043  150.3042  156.2941 C.ar    1  UNL1        0.0000
     18 C         138.6907  148.8553  156.3285 C.ar    1  UNL1        0.0012
     19 C         139.4510  148.2546  155.1834 C.ar    1  UNL1        0.0135
     20 C         142.2103  143.9822  160.6166 C.ar    1  UNL1        0.1255
     21 C         142.1196  144.5130  162.0166 C.ar    1  UNL1        0.0233
     22 C         143.1597  144.1373  163.0300 C.ar    1  UNL1        0.0383
     23 C         144.2906  143.2308  162.6434 C.ar    1  UNL1        0.1386
     24 C         144.3813  142.7000  161.2434 C.ar    1  UNL1        0.0383
     25 C         143.3411  143.0757  160.2300 C.ar    1  UNL1        0.0233
     26 O         145.3307  142.8551  163.6567 O.3     1  UNL1       -0.4754
     27 C         145.6494  141.4104  163.9043 C.3     1  UNL1        0.2068
     28 C         144.5524  140.4502  164.2574 C.3     1  UNL1        0.0646
     29 C         144.1800  139.3535  163.3043 C.3     1  UNL1        0.0759
     30 N         142.9483  138.5330  163.5493 N.3     1  UNL1       -0.2726
     31 C         142.0531  137.9505  162.4962 C.3     1  UNL1        0.0721
     32 C         140.9471  137.2086  163.1864 C.3     1  UNL1        0.0188
     33 C         141.1589  137.3326  164.6663 C.3     1  UNL1        0.0188
     34 C         142.3957  138.1512  164.8905 C.3     1  UNL1        0.0721
@<TRIPOS>BOND
     1     4     5    2
     2     5     6   am
     3     6    10    1
     4    10    11   ar
     5    11    12   ar
     6    12    13   ar
     7    13    14   ar
     8    14    15   ar
     9    15    16   ar
    10    16    17   ar
    11    17    18   ar
    12    18    19   ar
    13     5     7   am
    14     7     1    1
    15     1     2    2
    16     1     3    2
    17     1    20    1
    18    20    21   ar
    19    21    22   ar
    20    22    23   ar
    21    23    26    1
    22    26    27    1
    23    27    28    1
    24    28    29    1
    25    29    30    1
    26    30    31    1
    27    31    32    1
    28    32    33    1
    29    33    34    1
    30    23    24   ar
    31    24    25   ar
    32    19    10   ar
    33    25    20   ar
    34    19    14   ar
    35    34    30    1
    36     6     8    1
    37     7     9    1
@<TRIPOS>MOLECULE
*****
 34 37 0 0 0
SMALL
GASTEIGER

@<TRIPOS>ATOM
      1 S         143.3251  139.3156  161.0109 S.O2    1  UNL1        0.0768
      2 O         142.7568  140.6152  160.5229 O.2     1  UNL1       -0.1498
      3 O         143.8934  138.0161  161.4989 O.2     1  UNL1       -0.1498
      4 O         141.4482  138.0105  159.0682 O.2     1  UNL1       -0.2509
      5 C         142.8495  138.3432  158.6490 C.2     1  UNL1        0.3231
      6 N         143.3123  138.0234  157.2585 N.am    1  UNL1       -0.2671
      7 N         143.7880  138.9958  159.6203 N.am    1  UNL1       -0.1690
      8 H         144.2320  138.2418  156.9834 H       1  UNL1        0.1565
      9 H         144.7077  139.2142  159.3452 H       1  UNL1        0.1781
     10 C         142.3739  137.3708  156.2872 C.ar    1  UNL1        0.0516
     11 C         141.4886  138.2138  155.4180 C.ar    1  UNL1        0.0147
     12 C         140.5501  137.5612  154.4467 C.ar    1  UNL1        0.0013
     13 C         140.4970  136.0656  154.3446 C.ar    1  UNL1        0.0001
     14 C         141.3824  135.2226  155.2138 C.ar    1  UNL1        0.0012
     15 C         141.3292  133.7270  155.1118 C.ar    1  UNL1        0.0000
     16 C         142.2146  132.8841  155.9810 C.ar    1  UNL1        0.0000
     17 C         143.1530  133.5367  156.9523 C.ar    1  UNL1        0.0000
     18 C         143.2061  135.0322  157.0544 C.ar    1  UNL1        0.0012
     19 C         142.3208  135.8752  156.1852 C.ar    1  UNL1        0.0135
     20 C         142.8623  139.6354  162.4014 C.ar    1  UNL1        0.1255
     21 C         142.0757  140.8860  162.6610 C.ar    1  UNL1        0.0233
     22 C         141.6129  141.2057  164.0515 C.ar    1  UNL1        0.0383
     23 C         141.9366  140.2749  165.1824 C.ar    1  UNL1        0.1386
     24 C         142.7232  139.0243  164.9227 C.ar    1  UNL1        0.0383
     25 C         143.1860  138.7046  163.5322 C.ar    1  UNL1        0.0233
     26 O         141.4738  140.5947  166.5729 O.3     1  UNL1       -0.4754
     27 C         140.2824  139.8877  167.1480 C.3     1  UNL1        0.2068
     28 C         138.9562  139.9647  166.4514 C.3     1  UNL1        0.0646
     29 C         138.4586  138.7954  165.6544 C.3     1  UNL1        0.0759
     30 N         138.7648  138.7017  164.1889 N.3     1  UNL1       -0.2726
     31 C         139.5756  137.6289  163.5244 C.3     1  UNL1        0.0721
     32 C         139.6259  137.9287  162.0555 C.3     1  UNL1        0.0188
     33 C         138.8461  139.1868  161.8122 C.3     1  UNL1        0.0188
     34 C         138.3139  139.6646  163.1308 C.3     1  UNL1        0.0721
@<TRIPOS>BOND
     1     4     5    2
     2     5     6   am
     3     6    10    1
     4    10    11   ar
     5    11    12   ar
     6    12    13   ar
     7    13    14   ar
     8    14    15   ar
     9    15    16   ar
    10    16    17   ar
    11    17    18   ar
    12    18    19   ar
    13     5     7   am
    14     7     1    1
    15     1     2    2
    16     1     3    2
    17     1    20    1
    18    20    21   ar
    19    21    22   ar
    20    22    23   ar
    21    23    26    1
    22    26    27    1
    23    27    28    1
    24    28    29    1
    25    29    30    1
    26    30    31    1
    27    31    32    1
    28    32    33    1
    29    33    34    1
    30    23    24   ar
    31    24    25   ar
    32    19    10   ar
    33    25    20   ar
    34    19    14   ar
    35    34    30    1
    36     6     8    1
    37     7     9    1
@<TRIPOS>MOLECULE
*****
 34 37 0 0 0
SMALL
GASTEIGER

@<TRIPOS>ATOM
      1 S         143.8330  138.9640  161.4976 S.O2    1  UNL1        0.0768
      2 O         144.3562  137.5583  161.5078 O.2     1  UNL1       -0.1498
      3 O         143.3099  140.3698  161.4874 O.2     1  UNL1       -0.1498
      4 O         141.7292  137.7972  159.7053 O.2     1  UNL1       -0.2509
      5 C         142.9513  138.4332  159.1120 C.2     1  UNL1        0.3231
      6 N         143.1215  138.4858  157.6227 N.am    1  UNL1       -0.2671
      7 N         144.0032  139.0167  160.0082 N.am    1  UNL1       -0.1690
      8 H         143.9236  138.9033  157.2333 H       1  UNL1        0.1565
      9 H         144.8054  139.4341  159.6188 H       1  UNL1        0.1781
     10 C         142.0696  137.9024  156.7265 C.ar    1  UNL1        0.0516
     11 C         140.9451  138.7626  156.2311 C.ar    1  UNL1        0.0147
     12 C         139.8931  138.1792  155.3350 C.ar    1  UNL1        0.0013
     13 C         139.9657  136.7356  154.9342 C.ar    1  UNL1        0.0001
     14 C         141.0903  135.8753  155.4296 C.ar    1  UNL1        0.0012
     15 C         141.1629  134.4317  155.0288 C.ar    1  UNL1        0.0000
     16 C         142.2874  133.5715  155.5242 C.ar    1  UNL1        0.0000
     17 C         143.3394  134.1549  156.4204 C.ar    1  UNL1        0.0000
     18 C         143.2668  135.5985  156.8211 C.ar    1  UNL1        0.0012
     19 C         142.1422  136.4587  156.3257 C.ar    1  UNL1        0.0135
     20 C         143.6628  138.9115  162.9870 C.ar    1  UNL1        0.1255
     21 C         142.3880  138.3865  163.5781 C.ar    1  UNL1        0.0233
     22 C         142.2178  138.3339  165.0674 C.ar    1  UNL1        0.0383
     23 C         143.3223  138.8064  165.9657 C.ar    1  UNL1        0.1386
     24 C         144.5971  139.3313  165.3746 C.ar    1  UNL1        0.0383
     25 C         144.7673  139.3839  163.8852 C.ar    1  UNL1        0.0233
     26 O         143.1521  138.7538  167.4551 O.3     1  UNL1       -0.4754
     27 C         142.7150  139.9779  168.2037 C.3     1  UNL1        0.2068
     28 C         142.2472  141.1892  167.4527 C.3     1  UNL1        0.0646
     29 C         140.7996  141.5806  167.4876 C.3     1  UNL1        0.0759
     30 N         139.7679  140.6956  166.8532 N.3     1  UNL1       -0.2726
     31 C         139.3051  140.7623  165.4279 C.3     1  UNL1        0.0721
     32 C         138.2691  139.6965  165.2266 C.3     1  UNL1        0.0188
     33 C         138.0915  138.9709  166.5274 C.3     1  UNL1        0.0188
     34 C         139.0179  139.5884  167.5327 C.3     1  UNL1        0.0721
@<TRIPOS>BOND
     1     4     5    2
     2     5     6   am
     3     6    10    1
     4    10    11   ar
     5    11    12   ar
     6    12    13   ar
     7    13    14   ar
     8    14    15   ar
     9    15    16   ar
    10    16    17   ar
    11    17    18   ar
    12    18    19   ar
    13     5     7   am
    14     7     1    1
    15     1     2    2
    16     1     3    2
    17     1    20    1
    18    20    21   ar
    19    21    22   ar
    20    22    23   ar
    21    23    26    1
    22    26    27    1
    23    27    28    1
    24    28    29    1
    25    29    30    1
    26    30    31    1
    27    31    32    1
    28    32    33    1
    29    33    34    1
    30    23    24   ar
    31    24    25   ar
    32    19    10   ar
    33    25    20   ar
    34    19    14   ar
    35    34    30    1
    36     6     8    1
    37     7     9    1
@<TRIPOS>MOLECULE
*****
 34 37 0 0 0
SMALL
GASTEIGER

@<TRIPOS>ATOM
      1 S         140.5878  144.7127  159.9095 S.O2    1  UNL1        0.0768
      2 O         139.8364  145.8408  160.5519 O.2     1  UNL1       -0.1498
      3 O         141.3391  143.5846  159.2671 O.2     1  UNL1       -0.1498
      4 O         141.5823  146.2458  157.5304 O.2     1  UNL1       -0.2509
      5 C         140.2267  145.6044  157.4961 C.2     1  UNL1        0.3231
      6 N         139.3685  145.7297  156.2723 N.am    1  UNL1       -0.2671
      7 N         139.7294  144.8379  158.6857 N.am    1  UNL1       -0.1690
      8 H         138.4788  145.3087  156.2498 H       1  UNL1        0.1565
      9 H         138.8397  144.4169  158.6632 H       1  UNL1        0.1781
     10 C         139.8658  146.4962  155.0827 C.ar    1  UNL1        0.0516
     11 C         140.6657  145.7993  154.0223 C.ar    1  UNL1        0.0147
     12 C         141.1630  146.5659  152.8328 C.ar    1  UNL1        0.0013
     13 C         140.8604  148.0293  152.7036 C.ar    1  UNL1        0.0001
     14 C         140.0604  148.7263  153.7640 C.ar    1  UNL1        0.0012
     15 C         139.7578  150.1897  153.6348 C.ar    1  UNL1        0.0000
     16 C         138.9579  150.8866  154.6952 C.ar    1  UNL1        0.0000
     17 C         138.4606  150.1200  155.8848 C.ar    1  UNL1        0.0000
     18 C         138.7632  148.6566  156.0139 C.ar    1  UNL1        0.0012
     19 C         139.5631  147.9597  154.9536 C.ar    1  UNL1        0.0135
     20 C         141.4460  144.5874  161.1333 C.ar    1  UNL1        0.1255
     21 C         141.0540  145.2897  162.3994 C.ar    1  UNL1        0.0233
     22 C         141.9123  145.1645  163.6231 C.ar    1  UNL1        0.0383
     23 C         143.1627  144.3369  163.5808 C.ar    1  UNL1        0.1386
     24 C         143.5547  143.6346  162.3147 C.ar    1  UNL1        0.0383
     25 C         142.6964  143.7599  161.0909 C.ar    1  UNL1        0.0233
     26 O         144.0210  144.2116  164.8045 O.3     1  UNL1       -0.4754
     27 C         144.0189  142.9367  165.5949 C.3     1  UNL1        0.2068
     28 C         142.7516  142.4537  166.2356 C.3     1  UNL1        0.0646
     29 C         142.6247  141.0205  166.6598 C.3     1  UNL1        0.0759
     30 N         141.6306  140.6360  167.7154 N.3     1  UNL1       -0.2726
     31 C         141.9551  140.1286  169.0891 C.3     1  UNL1        0.0721
     32 C         140.6626  139.8704  169.8052 C.3     1  UNL1        0.0188
     33 C         139.5392  140.2182  168.8739 C.3     1  UNL1        0.0188
     34 C         140.1375  140.6913  167.5824 C.3     1  UNL1        0.0721
@<TRIPOS>BOND
     1     4     5    2
     2     5     6   am
     3     6    10    1
     4    10    11   ar
     5    11    12   ar
     6    12    13   ar
     7    13    14   ar
     8    14    15   ar
     9    15    16   ar
    10    16    17   ar
    11    17    18   ar
    12    18    19   ar
    13     5     7   am
    14     7     1    1
    15     1     2    2
    16     1     3    2
    17     1    20    1
    18    20    21   ar
    19    21    22   ar
    20    22    23   ar
    21    23    26    1
    22    26    27    1
    23    27    28    1
    24    28    29    1
    25    29    30    1
    26    30    31    1
    27    31    32    1
    28    32    33    1
    29    33    34    1
    30    23    24   ar
    31    24    25   ar
    32    19    10   ar
    33    25    20   ar
    34    19    14   ar
    35    34    30    1
    36     6     8    1
    37     7     9    1
@<TRIPOS>MOLECULE
*****
 34 37 0 0 0
SMALL
GASTEIGER

@<TRIPOS>ATOM
      1 S         142.1540  139.3198  158.5209 S.O2    1  UNL1        0.0768
      2 O         142.2717  140.2445  157.3458 O.2     1  UNL1       -0.1498
      3 O         142.0363  138.3950  159.6961 O.2     1  UNL1       -0.1498
      4 O         141.2778  137.0349  156.7855 O.2     1  UNL1       -0.2509
      5 C         142.7379  137.2670  157.0393 C.2     1  UNL1        0.3231
      6 N         143.7598  136.3567  156.4254 N.am    1  UNL1       -0.2671
      7 N         143.1760  138.4094  157.9070 N.am    1  UNL1       -0.1690
      8 H         144.7181  136.5090  156.5919 H       1  UNL1        0.1565
      9 H         144.1343  138.5618  158.0735 H       1  UNL1        0.1781
     10 C         143.3217  135.2142  155.5577 C.ar    1  UNL1        0.0516
     11 C         142.5967  135.4836  154.2725 C.ar    1  UNL1        0.0147
     12 C         142.1586  134.3412  153.4048 C.ar    1  UNL1        0.0013
     13 C         142.4455  132.9293  153.8223 C.ar    1  UNL1        0.0001
     14 C         143.1705  132.6599  155.1075 C.ar    1  UNL1        0.0012
     15 C         143.4574  131.2480  155.5250 C.ar    1  UNL1        0.0000
     16 C         144.1824  130.9786  156.8102 C.ar    1  UNL1        0.0000
     17 C         144.6205  132.1211  157.6779 C.ar    1  UNL1        0.0000
     18 C         144.3336  133.5329  157.2604 C.ar    1  UNL1        0.0012
     19 C         143.6086  133.8023  155.9752 C.ar    1  UNL1        0.0135
     20 C         141.1321  140.2300  159.1349 C.ar    1  UNL1        0.1255
     21 C         139.7774  140.3691  158.5061 C.ar    1  UNL1        0.0233
     22 C         138.7554  141.2794  159.1200 C.ar    1  UNL1        0.0383
     23 C         139.0882  142.0507  160.3629 C.ar    1  UNL1        0.1386
     24 C         140.4429  141.9116  160.9917 C.ar    1  UNL1        0.0383
     25 C         141.4649  141.0012  160.3776 C.ar    1  UNL1        0.0233
     26 O         138.0662  142.9609  160.9768 O.3     1  UNL1       -0.4754
     27 C         137.9446  143.0539  162.4690 C.3     1  UNL1        0.2068
     28 C         137.2751  141.9531  163.2370 C.3     1  UNL1        0.0646
     29 C         138.1024  140.9076  163.9244 C.3     1  UNL1        0.0759
     30 N         138.6086  139.7249  163.1530 N.3     1  UNL1       -0.2726
     31 C         139.8847  138.9815  163.4156 C.3     1  UNL1        0.0721
     32 C         139.9923  137.8751  162.4085 C.3     1  UNL1        0.0188
     33 C         138.7827  137.9347  161.5234 C.3     1  UNL1        0.0188
     34 C         137.9275  139.0779  161.9836 C.3     1  UNL1        0.0721
@<TRIPOS>BOND
     1     4     5    2
     2     5     6   am
     3     6    10    1
     4    10    11   ar
     5    11    12   ar
     6    12    13   ar
     7    13    14   ar
     8    14    15   ar
     9    15    16   ar
    10    16    17   ar
    11    17    18   ar
    12    18    19   ar
    13     5     7   am
    14     7     1    1
    15     1     2    2
    16     1     3    2
    17     1    20    1
    18    20    21   ar
    19    21    22   ar
    20    22    23   ar
    21    23    26    1
    22    26    27    1
    23    27    28    1
    24    28    29    1
    25    29    30    1
    26    30    31    1
    27    31    32    1
    28    32    33    1
    29    33    34    1
    30    23    24   ar
    31    24    25   ar
    32    19    10   ar
    33    25    20   ar
    34    19    14   ar
    35    34    30    1
    36     6     8    1
    37     7     9    1
@<TRIPOS>MOLECULE
*****
 34 37 0 0 0
SMALL
GASTEIGER

@<TRIPOS>ATOM
      1 S         138.7070  139.2420  161.4313 S.O2    1  UNL1        0.0768
      2 O         138.7640  137.7437  161.3897 O.2     1  UNL1       -0.1498
      3 O         138.6501  140.7403  161.4730 O.2     1  UNL1       -0.1498
      4 O         141.3970  139.3438  160.1071 O.2     1  UNL1       -0.2509
      5 C         140.1502  139.3383  159.2730 C.2     1  UNL1        0.3231
      6 N         140.2484  139.3836  157.7770 N.am    1  UNL1       -0.2671
      7 N         138.8052  139.2873  159.9352 N.am    1  UNL1       -0.1690
      8 H         139.4301  139.3800  157.2296 H       1  UNL1        0.1565
      9 H         137.9869  139.2837  159.3878 H       1  UNL1        0.1781
     10 C         141.5934  139.4345  157.1149 C.ar    1  UNL1        0.0516
     11 C         142.2982  140.7481  156.9485 C.ar    1  UNL1        0.0147
     12 C         143.6432  140.7990  156.2864 C.ar    1  UNL1        0.0013
     13 C         144.2834  139.5364  155.7906 C.ar    1  UNL1        0.0001
     14 C         143.5785  138.2227  155.9569 C.ar    1  UNL1        0.0012
     15 C         144.2187  136.9601  155.4611 C.ar    1  UNL1        0.0000
     16 C         143.5139  135.6465  155.6275 C.ar    1  UNL1        0.0000
     17 C         142.1689  135.5956  156.2896 C.ar    1  UNL1        0.0000
     18 C         141.5287  136.8582  156.7854 C.ar    1  UNL1        0.0012
     19 C         142.2336  138.1718  156.6191 C.ar    1  UNL1        0.0135
     20 C         138.6088  139.1967  162.9274 C.ar    1  UNL1        0.1255
     21 C         138.1518  140.4072  163.6860 C.ar    1  UNL1        0.0233
     22 C         138.0536  140.3619  165.1821 C.ar    1  UNL1        0.0383
     23 C         138.4125  139.1060  165.9196 C.ar    1  UNL1        0.1386
     24 C         138.8696  137.8954  165.1610 C.ar    1  UNL1        0.0383
     25 C         138.9677  137.9407  163.6648 C.ar    1  UNL1        0.0233
     26 O         138.3143  139.0606  167.4157 O.3     1  UNL1       -0.4754
     27 C         139.3297  139.7768  168.2560 C.3     1  UNL1        0.2068
     28 C         140.4309  140.5560  167.6001 C.3     1  UNL1        0.0646
     29 C         141.7157  139.8746  167.2325 C.3     1  UNL1        0.0759
     30 N         142.0215  139.5759  165.7946 N.3     1  UNL1       -0.2726
     31 C         141.8041  140.5033  164.6359 C.3     1  UNL1        0.0721
     32 C         142.2466  139.7979  163.3883 C.3     1  UNL1        0.0188
     33 C         142.7375  138.4345  163.7759 C.3     1  UNL1        0.0188
     34 C         142.5983  138.2973  165.2631 C.3     1  UNL1        0.0721
@<TRIPOS>BOND
     1     4     5    2
     2     5     6   am
     3     6    10    1
     4    10    11   ar
     5    11    12   ar
     6    12    13   ar
     7    13    14   ar
     8    14    15   ar
     9    15    16   ar
    10    16    17   ar
    11    17    18   ar
    12    18    19   ar
    13     5     7   am
    14     7     1    1
    15     1     2    2
    16     1     3    2
    17     1    20    1
    18    20    21   ar
    19    21    22   ar
    20    22    23   ar
    21    23    26    1
    22    26    27    1
    23    27    28    1
    24    28    29    1
    25    29    30    1
    26    30    31    1
    27    31    32    1
    28    32    33    1
    29    33    34    1
    30    23    24   ar
    31    24    25   ar
    32    19    10   ar
    33    25    20   ar
    34    19    14   ar
    35    34    30    1
    36     6     8    1
    37     7     9    1
@<TRIPOS>MOLECULE
*****
 34 37 0 0 0
SMALL
GASTEIGER

@<TRIPOS>ATOM
      1 S         143.2242  139.2759  161.0015 S.O2    1  UNL1        0.0768
      2 O         143.7481  137.9703  161.5218 O.2     1  UNL1       -0.1498
      3 O         142.7003  140.5816  160.4812 O.2     1  UNL1       -0.1498
      4 O         141.4139  137.9740  158.9945 O.2     1  UNL1       -0.2509
      5 C         142.8351  138.2871  158.6306 C.2     1  UNL1        0.3231
      6 N         143.3510  137.9493  157.2633 N.am    1  UNL1       -0.2671
      7 N         143.7402  138.9381  159.6341 N.am    1  UNL1       -0.1690
      8 H         144.2837  138.1549  157.0244 H       1  UNL1        0.1565
      9 H         144.6729  139.1437  159.3953 H       1  UNL1        0.1781
     10 C         142.4459  137.2984  156.2598 C.ar    1  UNL1        0.0516
     11 C         141.6168  138.1432  155.3384 C.ar    1  UNL1        0.0147
     12 C         140.7117  137.4922  154.3350 C.ar    1  UNL1        0.0013
     13 C         140.6356  135.9964  154.2529 C.ar    1  UNL1        0.0001
     14 C         141.4647  135.1515  155.1743 C.ar    1  UNL1        0.0012
     15 C         141.3886  133.6557  155.0921 C.ar    1  UNL1        0.0000
     16 C         142.2176  132.8109  156.0135 C.ar    1  UNL1        0.0000
     17 C         143.1227  133.4619  157.0170 C.ar    1  UNL1        0.0000
     18 C         143.1988  134.9577  157.0991 C.ar    1  UNL1        0.0012
     19 C         142.3698  135.8025  156.1777 C.ar    1  UNL1        0.0135
     20 C         142.7082  139.6137  162.3688 C.ar    1  UNL1        0.1255
     21 C         142.3669  141.0335  162.7120 C.ar    1  UNL1        0.0233
     22 C         141.8509  141.3713  164.0793 C.ar    1  UNL1        0.0383
     23 C         141.6762  140.2894  165.1035 C.ar    1  UNL1        0.1386
     24 C         142.0175  138.8696  164.7603 C.ar    1  UNL1        0.0383
     25 C         142.5335  138.5318  163.3929 C.ar    1  UNL1        0.0233
     26 O         141.1602  140.6272  166.4708 O.3     1  UNL1       -0.4754
     27 C         140.1375  139.7464  167.1252 C.3     1  UNL1        0.2068
     28 C         139.5637  140.1258  168.4582 C.3     1  UNL1        0.0646
     29 C         140.4265  140.0875  169.6846 C.3     1  UNL1        0.0759
     30 N         141.5330  141.0859  169.8546 N.3     1  UNL1       -0.2726
     31 C         142.9724  140.8779  169.4874 C.3     1  UNL1        0.0721
     32 C         143.7233  142.1311  169.8276 C.3     1  UNL1        0.0188
     33 C         142.7480  143.1136  170.4051 C.3     1  UNL1        0.0188
     34 C         141.3943  142.4676  170.4218 C.3     1  UNL1        0.0721
@<TRIPOS>BOND
     1     4     5    2
     2     5     6   am
     3     6    10    1
     4    10    11   ar
     5    11    12   ar
     6    12    13   ar
     7    13    14   ar
     8    14    15   ar
     9    15    16   ar
    10    16    17   ar
    11    17    18   ar
    12    18    19   ar
    13     5     7   am
    14     7     1    1
    15     1     2    2
    16     1     3    2
    17     1    20    1
    18    20    21   ar
    19    21    22   ar
    20    22    23   ar
    21    23    26    1
    22    26    27    1
    23    27    28    1
    24    28    29    1
    25    29    30    1
    26    30    31    1
    27    31    32    1
    28    32    33    1
    29    33    34    1
    30    23    24   ar
    31    24    25   ar
    32    19    10   ar
    33    25    20   ar
    34    19    14   ar
    35    34    30    1
    36     6     8    1
    37     7     9    1
@<TRIPOS>MOLECULE
*****
 34 37 0 0 0
SMALL
GASTEIGER

@<TRIPOS>ATOM
      1 S         143.0278  140.2090  160.4816 S.O2    1  UNL1        0.0768
      2 O         143.1737  138.9894  161.3424 O.2     1  UNL1       -0.1498
      3 O         142.8819  141.4287  159.6208 O.2     1  UNL1       -0.1498
      4 O         141.2738  138.7144  158.5608 O.2     1  UNL1       -0.2509
      5 C         142.7614  138.7212  158.3684 C.2     1  UNL1        0.3231
      6 N         143.3720  137.9808  157.2157 N.am    1  UNL1       -0.2671
      7 N         143.6384  139.4685  159.3288 N.am    1  UNL1       -0.1690
      8 H         144.3484  137.9852  157.0894 H       1  UNL1        0.1565
      9 H         144.6148  139.4730  159.2026 H       1  UNL1        0.1781
     10 C         142.4950  137.2335  156.2553 C.ar    1  UNL1        0.0516
     11 C         141.6377  137.9860  155.2812 C.ar    1  UNL1        0.0147
     12 C         140.7607  137.2387  154.3208 C.ar    1  UNL1        0.0013
     13 C         140.7410  135.7389  154.3344 C.ar    1  UNL1        0.0001
     14 C         141.5983  134.9863  155.3085 C.ar    1  UNL1        0.0012
     15 C         141.5786  133.4865  155.3221 C.ar    1  UNL1        0.0000
     16 C         142.4359  132.7341  156.2961 C.ar    1  UNL1        0.0000
     17 C         143.3129  133.4814  157.2565 C.ar    1  UNL1        0.0000
     18 C         143.3326  134.9811  157.2429 C.ar    1  UNL1        0.0012
     19 C         142.4753  135.7336  156.2689 C.ar    1  UNL1        0.0135
     20 C         142.4172  140.9495  161.6343 C.ar    1  UNL1        0.1255
     21 C         141.2171  140.3865  162.3363 C.ar    1  UNL1        0.0233
     22 C         140.6065  141.1270  163.4890 C.ar    1  UNL1        0.0383
     23 C         141.1960  142.4306  163.9398 C.ar    1  UNL1        0.1386
     24 C         142.3961  142.9936  163.2379 C.ar    1  UNL1        0.0383
     25 C         143.0067  142.2531  162.0851 C.ar    1  UNL1        0.0233
     26 O         140.5854  143.1711  165.0925 O.3     1  UNL1       -0.4754
     27 C         139.6959  144.3519  164.8387 C.3     1  UNL1        0.2068
     28 C         138.2666  144.1413  164.4351 C.3     1  UNL1        0.0646
     29 C         137.8730  144.2381  162.9909 C.3     1  UNL1        0.0759
     30 N         138.9261  144.4085  161.9364 N.3     1  UNL1       -0.2726
     31 C         139.7763  145.6266  161.7280 C.3     1  UNL1        0.0721
     32 C         140.6895  145.3616  160.5679 C.3     1  UNL1        0.0188
     33 C         140.4037  143.9797  160.0593 C.3     1  UNL1        0.0188
     34 C         139.3139  143.3907  160.9050 C.3     1  UNL1        0.0721
@<TRIPOS>BOND
     1     4     5    2
     2     5     6   am
     3     6    10    1
     4    10    11   ar
     5    11    12   ar
     6    12    13   ar
     7    13    14   ar
     8    14    15   ar
     9    15    16   ar
    10    16    17   ar
    11    17    18   ar
    12    18    19   ar
    13     5     7   am
    14     7     1    1
    15     1     2    2
    16     1     3    2
    17     1    20    1
    18    20    21   ar
    19    21    22   ar
    20    22    23   ar
    21    23    26    1
    22    26    27    1
    23    27    28    1
    24    28    29    1
    25    29    30    1
    26    30    31    1
    27    31    32    1
    28    32    33    1
    29    33    34    1
    30    23    24   ar
    31    24    25   ar
    32    19    10   ar
    33    25    20   ar
    34    19    14   ar
    35    34    30    1
    36     6     8    1
    37     7     9    1
