@<TRIPOS>MOLECULE
*****
 27 30 0 0 0
SMALL
GASTEIGER

@<TRIPOS>ATOM
      1 C         141.2699  138.3713  158.8010 C.3     1  UNL1        0.0523
      2 C         141.1373  138.3963  160.2949 C.ar    1  UNL1        0.0653
      3 C         142.3485  138.6170  161.1518 C.ar    1  UNL1        0.0490
      4 C         142.2159  138.6420  162.6457 C.ar    1  UNL1        0.1342
      5 N         140.8721  138.4461  163.2827 N.ar    1  UNL1       -0.1816
      6 N         140.4357  138.4205  164.7176 N.ar    1  UNL1       -0.1409
      7 C         138.9548  138.1839  164.7476 C.ar    1  UNL1        0.2227
      8 N         138.4759  138.0633  163.3312 N.ar    1  UNL1       -0.1880
      9 C         139.6609  138.2254  162.4259 C.ar    1  UNL1        0.2552
     10 N         139.7935  138.2004  160.9320 N.ar    1  UNL1       -0.2142
     11 C         138.1024  138.0852  165.9779 C.3     1  UNL1        0.3163
     12 C         137.2500  137.9866  167.2082 C.3     1  UNL1        0.0805
     13 F         138.1505  136.5885  165.8913 F       1  UNL1       -0.1962
     14 F         138.0542  139.5819  166.0645 F       1  UNL1       -0.1962
     15 N         143.4271  138.8627  163.5026 N.pl3   1  UNL1       -0.3192
     16 H         144.2719  138.4049  163.2882 H       1  UNL1        0.1482
     17 C         143.3512  139.7811  164.6862 C.3     1  UNL1        0.0750
     18 C         143.5686  141.2544  164.5074 C.3     1  UNL1        0.0245
     19 C         143.4927  142.1728  165.6910 C.3     1  UNL1        0.0278
     20 C         143.1994  141.6178  167.0533 C.ar    1  UNL1       -0.0255
     21 C         143.1235  142.5362  168.2369 C.ar    1  UNL1        0.0021
     22 C         142.8302  141.9812  169.5993 C.ar    1  UNL1        0.0342
     23 BR        142.7543  142.8995  170.7828 Br      1  UNL1       -0.0490
     24 C         142.6128  140.5078  169.7780 C.ar    1  UNL1        0.0064
     25 C         142.6887  139.5894  168.5944 C.ar    1  UNL1       -0.0040
     26 C         142.9820  140.1444  167.2321 C.ar    1  UNL1       -0.0245
     27 C         143.0579  139.2261  166.0485 C.3     1  UNL1        0.0455
@<TRIPOS>BOND
     1     1     2    1
     2     2     3   ar
     3     3     4   ar
     4     4    15    1
     5    15    17    1
     6    17    18    1
     7    18    19    1
     8    19    20    1
     9    20    21   ar
    10    21    22   ar
    11    22    23    1
    12    22    24   ar
    13    24    25   ar
    14    25    26   ar
    15    26    27    1
    16     4     5   ar
    17     5     6   ar
    18     6     7   ar
    19     7    11    1
    20    11    12    1
    21    11    13    1
    22    11    14    1
    23     7     8   ar
    24     8     9   ar
    25     9    10   ar
    26    10     2   ar
    27    27    17    1
    28     9     5   ar
    29    26    20   ar
    30    15    16    1
@<TRIPOS>MOLECULE
*****
 27 30 0 0 0
SMALL
GASTEIGER

@<TRIPOS>ATOM
      1 C         139.5993  138.6741  158.5720 C.3     1  UNL1        0.0523
      2 C         139.3600  139.2339  159.9429 C.ar    1  UNL1        0.0653
      3 C         139.3084  138.3170  161.1290 C.ar    1  UNL1        0.0490
      4 C         139.0692  138.8768  162.4999 C.ar    1  UNL1        0.1342
      5 N         138.8815  140.3536  162.6847 N.ar    1  UNL1       -0.1816
      6 N         138.6312  141.1884  163.9055 N.ar    1  UNL1       -0.1409
      7 C         138.5280  142.6213  163.4739 C.ar    1  UNL1        0.2227
      8 N         138.7146  142.6719  161.9864 N.ar    1  UNL1       -0.1880
      9 C         138.9331  141.2704  161.4987 C.ar    1  UNL1        0.2552
     10 N         139.1724  140.7106  160.1278 N.ar    1  UNL1       -0.2142
     11 C         138.2815  143.7971  164.3722 C.3     1  UNL1        0.3163
     12 C         138.0351  144.9728  165.2704 C.3     1  UNL1        0.0805
     13 F         137.3510  144.3819  163.3514 F       1  UNL1       -0.1962
     14 F         139.2120  143.2122  165.3930 F       1  UNL1       -0.1962
     15 N         139.0176  137.9600  163.6859 N.pl3   1  UNL1       -0.3192
     16 H         138.8351  137.0009  163.5591 H       1  UNL1        0.1482
     17 C         139.2440  138.5044  165.0652 C.3     1  UNL1        0.0750
     18 C         138.1025  138.5901  166.0345 C.3     1  UNL1        0.0245
     19 C         138.3290  139.1345  167.4137 C.3     1  UNL1        0.0278
     20 C         139.6971  139.5933  167.8236 C.ar    1  UNL1       -0.0255
     21 C         139.9235  140.1377  169.2029 C.ar    1  UNL1        0.0021
     22 C         141.2916  140.5964  169.6128 C.ar    1  UNL1        0.0342
     23 BR        141.5181  141.1409  170.9920 Br      1  UNL1       -0.0490
     24 C         142.4331  140.5108  168.6435 C.ar    1  UNL1        0.0064
     25 C         142.2066  139.9663  167.2643 C.ar    1  UNL1       -0.0040
     26 C         140.8386  139.5076  166.8543 C.ar    1  UNL1       -0.0245
     27 C         140.6121  138.9632  165.4751 C.3     1  UNL1        0.0455
@<TRIPOS>BOND
     1     1     2    1
     2     2     3   ar
     3     3     4   ar
     4     4    15    1
     5    15    17    1
     6    17    18    1
     7    18    19    1
     8    19    20    1
     9    20    21   ar
    10    21    22   ar
    11    22    23    1
    12    22    24   ar
    13    24    25   ar
    14    25    26   ar
    15    26    27    1
    16     4     5   ar
    17     5     6   ar
    18     6     7   ar
    19     7    11    1
    20    11    12    1
    21    11    13    1
    22    11    14    1
    23     7     8   ar
    24     8     9   ar
    25     9    10   ar
    26    10     2   ar
    27    27    17    1
    28     9     5   ar
    29    26    20   ar
    30    15    16    1
@<TRIPOS>MOLECULE
*****
 27 30 0 0 0
SMALL
GASTEIGER

@<TRIPOS>ATOM
      1 C         142.6313  137.8796  157.5591 C.3     1  UNL1        0.0523
      2 C         142.7790  138.6183  158.8562 C.ar    1  UNL1        0.0653
      3 C         142.7662  137.8657  160.1537 C.ar    1  UNL1        0.0490
      4 C         142.9140  138.6044  161.4508 C.ar    1  UNL1        0.1342
      5 N         143.0746  140.0958  161.4504 N.ar    1  UNL1       -0.1816
      6 N         143.2400  141.0877  162.5634 N.ar    1  UNL1       -0.1409
      7 C         143.3550  142.4534  161.9537 C.ar    1  UNL1        0.2227
      8 N         143.2607  142.3055  160.4641 N.ar    1  UNL1       -0.1880
      9 C         143.0874  140.8484  160.1530 C.ar    1  UNL1        0.2552
     10 N         142.9396  140.1097  158.8559 N.ar    1  UNL1       -0.2142
     11 C         143.5330  143.7410  162.7025 C.3     1  UNL1        0.3163
     12 C         143.7110  145.0285  163.4511 C.3     1  UNL1        0.0805
     13 F         144.8614  143.9447  162.0363 F       1  UNL1       -0.1962
     14 F         142.2046  143.5373  163.3686 F       1  UNL1       -0.1962
     15 N         142.9012  137.8518  162.7482 N.pl3   1  UNL1       -0.3192
     16 H         143.4464  137.0385  162.8509 H       1  UNL1        0.1482
     17 C         142.0578  138.3383  163.8893 C.3     1  UNL1        0.0750
     18 C         140.5794  138.5148  163.7071 C.3     1  UNL1        0.0245
     19 C         139.7360  139.0014  164.8481 C.3     1  UNL1        0.0278
     20 C         140.3710  139.3114  166.1713 C.ar    1  UNL1       -0.0255
     21 C         139.5275  139.7980  167.3123 C.ar    1  UNL1        0.0021
     22 C         140.1625  140.1080  168.6354 C.ar    1  UNL1        0.0342
     23 BR        139.3191  140.5946  169.7764 Br      1  UNL1       -0.0490
     24 C         141.6410  139.9315  168.8175 C.ar    1  UNL1        0.0064
     25 C         142.4844  139.4450  167.6765 C.ar    1  UNL1       -0.0040
     26 C         141.8494  139.1349  166.3534 C.ar    1  UNL1       -0.0245
     27 C         142.6927  138.6484  165.2124 C.3     1  UNL1        0.0455
@<TRIPOS>BOND
     1     1     2    1
     2     2     3   ar
     3     3     4   ar
     4     4    15    1
     5    15    17    1
     6    17    18    1
     7    18    19    1
     8    19    20    1
     9    20    21   ar
    10    21    22   ar
    11    22    23    1
    12    22    24   ar
    13    24    25   ar
    14    25    26   ar
    15    26    27    1
    16     4     5   ar
    17     5     6   ar
    18     6     7   ar
    19     7    11    1
    20    11    12    1
    21    11    13    1
    22    11    14    1
    23     7     8   ar
    24     8     9   ar
    25     9    10   ar
    26    10     2   ar
    27    27    17    1
    28     9     5   ar
    29    26    20   ar
    30    15    16    1
@<TRIPOS>MOLECULE
*****
 27 30 0 0 0
SMALL
GASTEIGER

@<TRIPOS>ATOM
      1 C         140.6326  138.8452  158.2507 C.3     1  UNL1        0.0523
      2 C         140.3970  139.1707  159.6959 C.ar    1  UNL1        0.0653
      3 C         140.9370  140.4445  160.2755 C.ar    1  UNL1        0.0490
      4 C         140.7014  140.7699  161.7207 C.ar    1  UNL1        0.1342
      5 N         139.9258  139.8216  162.5863 N.ar    1  UNL1       -0.1816
      6 N         139.5375  139.8733  164.0342 N.ar    1  UNL1       -0.1409
      7 C         138.7574  138.6314  164.3494 C.ar    1  UNL1        0.2227
      8 N         138.6637  137.8123  163.0964 N.ar    1  UNL1       -0.1880
      9 C         139.3858  138.5479  162.0067 C.ar    1  UNL1        0.2552
     10 N         139.6214  138.2224  160.5615 N.ar    1  UNL1       -0.2142
     11 C         138.1736  138.2718  165.6836 C.3     1  UNL1        0.3163
     12 C         137.5898  137.9123  167.0177 C.3     1  UNL1        0.0805
     13 F         138.6675  136.8649  165.5206 F       1  UNL1       -0.1962
     14 F         137.6797  139.6787  165.8466 F       1  UNL1       -0.1962
     15 N         141.2414  142.0437  162.3004 N.pl3   1  UNL1       -0.3192
     16 H         141.2952  142.8539  161.7437 H       1  UNL1        0.1482
     17 C         141.6994  142.0830  163.7282 C.3     1  UNL1        0.0750
     18 C         143.1005  141.6773  164.0779 C.3     1  UNL1        0.0245
     19 C         143.5585  141.7166  165.5057 C.3     1  UNL1        0.0278
     20 C         142.6153  142.1616  166.5838 C.ar    1  UNL1       -0.0255
     21 C         143.0734  142.2009  168.0117 C.ar    1  UNL1        0.0021
     22 C         142.1302  142.6459  169.0899 C.ar    1  UNL1        0.0342
     23 BR        142.5882  142.6852  170.5177 Br      1  UNL1       -0.0490
     24 C         140.7290  143.0516  168.7402 C.ar    1  UNL1        0.0064
     25 C         140.2711  143.0122  167.3124 C.ar    1  UNL1       -0.0040
     26 C         141.2142  142.5673  166.2342 C.ar    1  UNL1       -0.0245
     27 C         140.7563  142.5279  164.8064 C.3     1  UNL1        0.0455
@<TRIPOS>BOND
     1     1     2    1
     2     2     3   ar
     3     3     4   ar
     4     4    15    1
     5    15    17    1
     6    17    18    1
     7    18    19    1
     8    19    20    1
     9    20    21   ar
    10    21    22   ar
    11    22    23    1
    12    22    24   ar
    13    24    25   ar
    14    25    26   ar
    15    26    27    1
    16     4     5   ar
    17     5     6   ar
    18     6     7   ar
    19     7    11    1
    20    11    12    1
    21    11    13    1
    22    11    14    1
    23     7     8   ar
    24     8     9   ar
    25     9    10   ar
    26    10     2   ar
    27    27    17    1
    28     9     5   ar
    29    26    20   ar
    30    15    16    1
@<TRIPOS>MOLECULE
*****
 27 30 0 0 0
SMALL
GASTEIGER

@<TRIPOS>ATOM
      1 C         139.7621  140.4466  170.5679 C.3     1  UNL1        0.0523
      2 C         139.8410  140.4664  169.0701 C.ar    1  UNL1        0.0653
      3 C         140.7829  141.4088  168.3810 C.ar    1  UNL1        0.0490
      4 C         140.8617  141.4285  166.8833 C.ar    1  UNL1        0.1342
      5 N         139.9986  140.5060  166.0745 N.ar    1  UNL1       -0.1816
      6 N         139.8590  140.3015  164.5951 N.ar    1  UNL1       -0.1409
      7 C         138.8308  139.2328  164.3699 C.ar    1  UNL1        0.2227
      8 N         138.3350  138.7768  165.7101 N.ar    1  UNL1       -0.1880
      9 C         139.0567  139.5637  166.7636 C.ar    1  UNL1        0.2552
     10 N         138.9779  139.5439  168.2614 N.ar    1  UNL1       -0.2142
     11 C         138.3780  138.7116  163.0382 C.3     1  UNL1        0.3163
     12 C         137.9253  138.1904  161.7065 C.3     1  UNL1        0.0805
     13 F         137.5307  139.9346  162.8476 F       1  UNL1       -0.1962
     14 F         139.2254  137.4887  163.2287 F       1  UNL1       -0.1962
     15 N         141.8036  142.3708  166.1942 N.pl3   1  UNL1       -0.3192
     16 H         142.6998  142.5323  166.5684 H       1  UNL1        0.1482
     17 C         141.3801  143.0671  164.9348 C.3     1  UNL1        0.0750
     18 C         140.2019  143.9953  164.9509 C.3     1  UNL1        0.0245
     19 C         139.7784  144.6915  163.6916 C.3     1  UNL1        0.0278
     20 C         140.5332  144.4597  162.4162 C.ar    1  UNL1       -0.0255
     21 C         140.1097  145.1560  161.1569 C.ar    1  UNL1        0.0021
     22 C         140.8644  144.9241  159.8815 C.ar    1  UNL1        0.0342
     23 BR        140.4410  145.6204  158.6222 Br      1  UNL1       -0.0490
     24 C         142.0427  143.9959  159.8655 C.ar    1  UNL1        0.0064
     25 C         142.4662  143.2997  161.1248 C.ar    1  UNL1       -0.0040
     26 C         141.7114  143.5315  162.4002 C.ar    1  UNL1       -0.0245
     27 C         142.1349  142.8353  163.6595 C.3     1  UNL1        0.0455
@<TRIPOS>BOND
     1     1     2    1
     2     2     3   ar
     3     3     4   ar
     4     4    15    1
     5    15    17    1
     6    17    18    1
     7    18    19    1
     8    19    20    1
     9    20    21   ar
    10    21    22   ar
    11    22    23    1
    12    22    24   ar
    13    24    25   ar
    14    25    26   ar
    15    26    27    1
    16     4     5   ar
    17     5     6   ar
    18     6     7   ar
    19     7    11    1
    20    11    12    1
    21    11    13    1
    22    11    14    1
    23     7     8   ar
    24     8     9   ar
    25     9    10   ar
    26    10     2   ar
    27    27    17    1
    28     9     5   ar
    29    26    20   ar
    30    15    16    1
@<TRIPOS>MOLECULE
*****
 27 30 0 0 0
SMALL
GASTEIGER

@<TRIPOS>ATOM
      1 C         144.6935  142.5949  161.0168 C.3     1  UNL1        0.0523
      2 C         144.1786  141.2285  160.6735 C.ar    1  UNL1        0.0653
      3 C         143.8271  140.2630  161.7664 C.ar    1  UNL1        0.0490
      4 C         143.3122  138.8966  161.4231 C.ar    1  UNL1        0.1342
      5 N         143.1488  138.4957  159.9869 N.ar    1  UNL1       -0.1816
      6 N         142.6678  137.2269  159.3476 N.ar    1  UNL1       -0.1409
      7 C         142.7220  137.4082  157.8595 C.ar    1  UNL1        0.2227
      8 N         143.2365  138.7891  157.5793 N.ar    1  UNL1       -0.1880
      9 C         143.5003  139.4611  158.8941 C.ar    1  UNL1        0.2552
     10 N         144.0152  140.8275  159.2374 N.ar    1  UNL1       -0.2142
     11 C         142.3304  136.3878  156.8321 C.3     1  UNL1        0.3163
     12 C         141.9388  135.3674  155.8048 C.3     1  UNL1        0.0805
     13 F         140.9136  136.8775  156.8858 F       1  UNL1       -0.1962
     14 F         143.7472  135.8982  156.7785 F       1  UNL1       -0.1962
     15 N         142.9607  137.9312  162.5159 N.pl3   1  UNL1       -0.3192
     16 H         143.2815  137.0014  162.4733 H       1  UNL1        0.1482
     17 C         142.1203  138.3823  163.6737 C.3     1  UNL1        0.0750
     18 C         140.6363  138.5279  163.5115 C.3     1  UNL1        0.0245
     19 C         139.7960  138.9790  164.6692 C.3     1  UNL1        0.0278
     20 C         140.4398  139.2846  165.9891 C.ar    1  UNL1       -0.0255
     21 C         139.5994  139.7358  167.1469 C.ar    1  UNL1        0.0021
     22 C         140.2432  140.0414  168.4668 C.ar    1  UNL1        0.0342
     23 BR        139.4030  140.4926  169.6245 Br      1  UNL1       -0.0490
     24 C         141.7274  139.8959  168.6289 C.ar    1  UNL1        0.0064
     25 C         142.5676  139.4447  167.4712 C.ar    1  UNL1       -0.0040
     26 C         141.9239  139.1391  166.1513 C.ar    1  UNL1       -0.0245
     27 C         142.7641  138.6879  164.9936 C.3     1  UNL1        0.0455
@<TRIPOS>BOND
     1     1     2    1
     2     2     3   ar
     3     3     4   ar
     4     4    15    1
     5    15    17    1
     6    17    18    1
     7    18    19    1
     8    19    20    1
     9    20    21   ar
    10    21    22   ar
    11    22    23    1
    12    22    24   ar
    13    24    25   ar
    14    25    26   ar
    15    26    27    1
    16     4     5   ar
    17     5     6   ar
    18     6     7   ar
    19     7    11    1
    20    11    12    1
    21    11    13    1
    22    11    14    1
    23     7     8   ar
    24     8     9   ar
    25     9    10   ar
    26    10     2   ar
    27    27    17    1
    28     9     5   ar
    29    26    20   ar
    30    15    16    1
@<TRIPOS>MOLECULE
*****
 27 30 0 0 0
SMALL
GASTEIGER

@<TRIPOS>ATOM
      1 C         138.1030  140.4893  157.7936 C.3     1  UNL1        0.0523
      2 C         138.2401  140.7494  159.2645 C.ar    1  UNL1        0.0653
      3 C         138.4855  139.6094  160.2081 C.ar    1  UNL1        0.0490
      4 C         138.6226  139.8696  161.6789 C.ar    1  UNL1        0.1342
      5 N         138.5144  141.2697  162.2062 N.ar    1  UNL1       -0.1816
      6 N         138.6061  141.8290  163.5950 N.ar    1  UNL1       -0.1409
      7 C         138.4174  143.3147  163.5098 C.ar    1  UNL1        0.2227
      8 N         138.2091  143.6735  162.0683 N.ar    1  UNL1       -0.1880
      9 C         138.2691  142.4096  161.2627 C.ar    1  UNL1        0.2552
     10 N         138.1319  142.1495  159.7918 N.ar    1  UNL1       -0.2142
     11 C         138.4342  144.2732  164.6635 C.3     1  UNL1        0.3163
     12 C         138.4509  145.2317  165.8171 C.3     1  UNL1        0.0805
     13 F         137.0430  143.8518  165.0338 F       1  UNL1       -0.1962
     14 F         139.8253  144.6946  164.2932 F       1  UNL1       -0.1962
     15 N         138.8680  138.7297  162.6225 N.pl3   1  UNL1       -0.3192
     16 H         138.4585  137.8511  162.4502 H       1  UNL1        0.1482
     17 C         139.7374  138.9283  163.8287 C.3     1  UNL1        0.0750
     18 C         141.2265  138.7924  163.7106 C.3     1  UNL1        0.0245
     19 C         142.0957  138.9910  164.9167 C.3     1  UNL1        0.0278
     20 C         141.4759  139.3255  166.2411 C.ar    1  UNL1       -0.0255
     21 C         142.3452  139.5242  167.4473 C.ar    1  UNL1        0.0021
     22 C         141.7254  139.8587  168.7716 C.ar    1  UNL1        0.0342
     23 BR        142.5946  140.0573  169.9778 Br      1  UNL1       -0.0490
     24 C         140.2362  139.9946  168.8897 C.ar    1  UNL1        0.0064
     25 C         139.3669  139.7960  167.6836 C.ar    1  UNL1       -0.0040
     26 C         139.9868  139.4615  166.3592 C.ar    1  UNL1       -0.0245
     27 C         139.1175  139.2628  165.1531 C.3     1  UNL1        0.0455
@<TRIPOS>BOND
     1     1     2    1
     2     2     3   ar
     3     3     4   ar
     4     4    15    1
     5    15    17    1
     6    17    18    1
     7    18    19    1
     8    19    20    1
     9    20    21   ar
    10    21    22   ar
    11    22    23    1
    12    22    24   ar
    13    24    25   ar
    14    25    26   ar
    15    26    27    1
    16     4     5   ar
    17     5     6   ar
    18     6     7   ar
    19     7    11    1
    20    11    12    1
    21    11    13    1
    22    11    14    1
    23     7     8   ar
    24     8     9   ar
    25     9    10   ar
    26    10     2   ar
    27    27    17    1
    28     9     5   ar
    29    26    20   ar
    30    15    16    1
@<TRIPOS>MOLECULE
*****
 27 30 0 0 0
SMALL
GASTEIGER

@<TRIPOS>ATOM
      1 C         139.6044  138.0414  154.1129 C.3     1  UNL1        0.0523
      2 C         140.5761  137.3349  155.0111 C.ar    1  UNL1        0.0653
      3 C         141.2882  138.0946  156.0908 C.ar    1  UNL1        0.0490
      4 C         142.2599  137.3882  156.9890 C.ar    1  UNL1        0.1342
      5 N         142.5196  135.9219  156.8073 N.ar    1  UNL1       -0.1816
      6 N         143.4157  134.9638  157.5345 N.ar    1  UNL1       -0.1409
      7 C         143.2575  133.6119  156.9041 C.ar    1  UNL1        0.2227
      8 N         142.2635  133.7346  155.7874 N.ar    1  UNL1       -0.1880
      9 C         141.8075  135.1623  155.7276 C.ar    1  UNL1        0.2552
     10 N         140.8358  135.8688  154.8295 N.ar    1  UNL1       -0.2142
     11 C         143.9684  132.3575  157.3179 C.3     1  UNL1        0.3163
     12 C         144.6794  131.1032  157.7316 C.3     1  UNL1        0.0805
     13 F         143.2276  131.5898  156.2634 F       1  UNL1       -0.1962
     14 F         144.7092  133.1251  158.3723 F       1  UNL1       -0.1962
     15 N         142.9720  138.1478  158.0687 N.pl3   1  UNL1       -0.3192
     16 H         143.7786  138.6697  157.8534 H       1  UNL1        0.1482
     17 C         142.4552  138.1124  159.4764 C.3     1  UNL1        0.0750
     18 C         143.4149  138.0213  160.6256 C.3     1  UNL1        0.0245
     19 C         142.8980  137.9859  162.0333 C.3     1  UNL1        0.0278
     20 C         141.4215  138.0415  162.2918 C.ar    1  UNL1       -0.0255
     21 C         140.9047  138.0060  163.6995 C.ar    1  UNL1        0.0021
     22 C         139.4282  138.0616  163.9580 C.ar    1  UNL1        0.0342
     23 BR        138.9113  138.0262  165.3657 Br      1  UNL1       -0.0490
     24 C         138.4685  138.1526  162.8087 C.ar    1  UNL1        0.0064
     25 C         138.9853  138.1881  161.4010 C.ar    1  UNL1       -0.0040
     26 C         140.4618  138.1325  161.1426 C.ar    1  UNL1       -0.0245
     27 C         140.9787  138.1679  159.7349 C.3     1  UNL1        0.0455
@<TRIPOS>BOND
     1     1     2    1
     2     2     3   ar
     3     3     4   ar
     4     4    15    1
     5    15    17    1
     6    17    18    1
     7    18    19    1
     8    19    20    1
     9    20    21   ar
    10    21    22   ar
    11    22    23    1
    12    22    24   ar
    13    24    25   ar
    14    25    26   ar
    15    26    27    1
    16     4     5   ar
    17     5     6   ar
    18     6     7   ar
    19     7    11    1
    20    11    12    1
    21    11    13    1
    22    11    14    1
    23     7     8   ar
    24     8     9   ar
    25     9    10   ar
    26    10     2   ar
    27    27    17    1
    28     9     5   ar
    29    26    20   ar
    30    15    16    1
@<TRIPOS>MOLECULE
*****
 27 30 0 0 0
SMALL
GASTEIGER

@<TRIPOS>ATOM
      1 C         141.8951  143.2235  157.2997 C.3     1  UNL1        0.0523
      2 C         141.6954  143.3223  158.7830 C.ar    1  UNL1        0.0653
      3 C         142.8209  142.9848  159.7155 C.ar    1  UNL1        0.0490
      4 C         142.6212  143.0836  161.1988 C.ar    1  UNL1        0.1342
      5 N         141.2960  143.5199  161.7497 N.ar    1  UNL1       -0.1816
      6 N         140.8065  143.7094  163.1549 N.ar    1  UNL1       -0.1409
      7 C         139.3785  144.1641  163.0909 C.ar    1  UNL1        0.2227
      8 N         138.9855  144.2556  161.6462 N.ar    1  UNL1       -0.1880
      9 C         140.1706  143.8574  160.8173 C.ar    1  UNL1        0.2552
     10 N         140.3703  143.7586  159.3340 N.ar    1  UNL1       -0.2142
     11 C         138.4981  144.4731  164.2654 C.3     1  UNL1        0.3163
     12 C         137.6178  144.7820  165.4400 C.3     1  UNL1        0.0805
     13 F         137.2928  144.4291  163.3736 F       1  UNL1       -0.1962
     14 F         139.7034  144.5171  165.1572 F       1  UNL1       -0.1962
     15 N         143.7466  142.7460  162.1312 N.pl3   1  UNL1       -0.3192
     16 H         144.6580  143.0646  161.9384 H       1  UNL1        0.1482
     17 C         143.4835  141.9232  163.3575 C.3     1  UNL1        0.0750
     18 C         143.2485  140.4469  163.2339 C.3     1  UNL1        0.0245
     19 C         142.9854  139.6241  164.4602 C.3     1  UNL1        0.0278
     20 C         142.9573  140.2776  165.8100 C.ar    1  UNL1       -0.0255
     21 C         142.6941  139.4547  167.0363 C.ar    1  UNL1        0.0021
     22 C         142.6660  140.1082  168.3862 C.ar    1  UNL1        0.0342
     23 BR        142.4029  139.2854  169.6124 Br      1  UNL1       -0.0490
     24 C         142.9010  141.5846  168.5098 C.ar    1  UNL1        0.0064
     25 C         143.1641  142.4074  167.2835 C.ar    1  UNL1       -0.0040
     26 C         143.1922  141.7539  165.9337 C.ar    1  UNL1       -0.0245
     27 C         143.4554  142.5767  164.7074 C.3     1  UNL1        0.0455
@<TRIPOS>BOND
     1     1     2    1
     2     2     3   ar
     3     3     4   ar
     4     4    15    1
     5    15    17    1
     6    17    18    1
     7    18    19    1
     8    19    20    1
     9    20    21   ar
    10    21    22   ar
    11    22    23    1
    12    22    24   ar
    13    24    25   ar
    14    25    26   ar
    15    26    27    1
    16     4     5   ar
    17     5     6   ar
    18     6     7   ar
    19     7    11    1
    20    11    12    1
    21    11    13    1
    22    11    14    1
    23     7     8   ar
    24     8     9   ar
    25     9    10   ar
    26    10     2   ar
    27    27    17    1
    28     9     5   ar
    29    26    20   ar
    30    15    16    1
