@<TRIPOS>MOLECULE
*****
 38 43 0 0 0
SMALL
GASTEIGER

@<TRIPOS>ATOM
      1 C         139.6925  143.4192  156.8720 C.3     1  UNL1        0.1352
      2 N         139.6005  143.0574  158.3247 N.ar    1  UNL1       -0.2765
      3 C         139.7131  144.0086  159.4791 C.ar    1  UNL1        0.3316
      4 O         139.9374  145.4886  159.3834 O.2     1  UNL1       -0.2463
      5 N         139.5619  143.2198  160.7460 N.ar    1  UNL1       -0.2815
      6 C         139.3559  141.7812  160.3747 C.ar    1  UNL1        0.0826
      7 C         139.1497  140.5497  161.2058 C.ar    1  UNL1        0.0352
      8 C         139.1258  140.6500  162.7023 C.ar    1  UNL1        0.0053
      9 C         138.9196  139.4185  163.5333 C.ar    1  UNL1        0.0291
     10 C         138.7373  138.0865  162.8680 C.ar    1  UNL1        0.1416
     11 F         138.5310  136.8550  163.6992 F       1  UNL1       -0.2041
     12 C         138.7611  137.9861  161.3716 C.ar    1  UNL1        0.0488
     13 C         138.9673  139.2177  160.5404 C.ar    1  UNL1        0.0850
     14 N         138.9912  139.1173  159.0440 N.ar    1  UNL1       -0.2422
     15 C         139.1974  140.3488  158.2129 C.ar    1  UNL1        0.1175
     16 C         139.3797  141.6808  158.8783 C.ar    1  UNL1        0.0989
     17 C         139.6085  143.7726  162.1397 C.3     1  UNL1        0.0949
     18 C         138.3371  144.1538  162.8383 C.3     1  UNL1        0.0548
     19 C         138.3837  144.7066  164.2319 C.3     1  UNL1        0.1441
     20 O         139.7018  144.8783  164.9270 O.3     1  UNL1       -0.3536
     21 C         140.9733  144.4971  164.2284 C.3     1  UNL1        0.1441
     22 C         140.9266  143.9443  162.8347 C.3     1  UNL1        0.0548
     23 C         138.8958  139.5189  165.0298 C.ar    1  UNL1        0.0216
     24 C         139.6373  140.6256  165.7192 C.ar    1  UNL1        0.0064
     25 C         139.6135  140.7260  167.2156 C.ar    1  UNL1        0.0577
     26 C         138.8481  139.7197  168.0227 C.ar    1  UNL1        0.2249
     27 N         138.1066  138.6129  167.3333 N.ar    1  UNL1       -0.2101
     28 C         138.1304  138.5125  165.8369 C.ar    1  UNL1        0.1021
     29 O         138.8243  139.8200  169.5192 O.3     1  UNL1       -0.4602
     30 C         140.0340  140.3118  170.2572 C.3     1  UNL1        0.2085
     31 C         141.3298  139.5631  170.1564 C.3     1  UNL1        0.0647
     32 C         142.5720  140.2714  169.7032 C.3     1  UNL1        0.0759
     33 N         142.8204  140.4879  168.2399 N.3     1  UNL1       -0.2726
     34 C         142.9023  139.3128  167.3112 C.3     1  UNL1        0.0721
     35 C         143.1507  139.5293  165.8478 C.3     1  UNL1        0.0174
     36 C         143.3171  140.9209  165.3131 C.3     1  UNL1        0.0029
     37 C         143.2352  142.0959  166.2418 C.3     1  UNL1        0.0174
     38 C         142.9868  141.8795  167.7052 C.3     1  UNL1        0.0721
@<TRIPOS>BOND
     1     1     2    1
     2     2     3   ar
     3     3     4    2
     4     3     5   ar
     5     5    17    1
     6    17    18    1
     7    18    19    1
     8    19    20    1
     9    20    21    1
    10    21    22    1
    11     5     6   ar
    12     6     7   ar
    13     7     8   ar
    14     8     9   ar
    15     9    23    1
    16    23    24   ar
    17    24    25   ar
    18    25    26   ar
    19    26    29    1
    20    29    30    1
    21    30    31    1
    22    31    32    1
    23    32    33    1
    24    33    34    1
    25    34    35    1
    26    35    36    1
    27    36    37    1
    28    37    38    1
    29    26    27   ar
    30    27    28   ar
    31     9    10   ar
    32    10    11    1
    33    10    12   ar
    34    12    13   ar
    35    13    14   ar
    36    14    15   ar
    37    15    16   ar
    38    16     2   ar
    39    22    17    1
    40    16     6   ar
    41    13     7   ar
    42    28    23   ar
    43    38    33    1
@<TRIPOS>MOLECULE
*****
 38 43 0 0 0
SMALL
GASTEIGER

@<TRIPOS>ATOM
      1 C         141.2405  141.9786  170.6597 C.3     1  UNL1        0.1352
      2 N         141.4853  141.5346  169.2480 N.ar    1  UNL1       -0.2765
      3 C         142.6823  141.8767  168.4112 C.ar    1  UNL1        0.3316
      4 O         143.8446  142.7229  168.8392 O.2     1  UNL1       -0.2463
      5 N         142.5129  141.2242  167.0713 N.ar    1  UNL1       -0.2815
      6 C         141.2113  140.4787  167.0799 C.ar    1  UNL1        0.0826
      7 C         140.5222  139.6500  166.0366 C.ar    1  UNL1        0.0352
      8 C         141.1573  139.4581  164.6913 C.ar    1  UNL1        0.0053
      9 C         140.4683  138.6294  163.6480 C.ar    1  UNL1        0.0291
     10 C         139.1442  137.9926  163.9500 C.ar    1  UNL1        0.1416
     11 F         138.4551  137.1639  162.9067 F       1  UNL1       -0.2041
     12 C         138.5091  138.1845  165.2953 C.ar    1  UNL1        0.0488
     13 C         139.1981  139.0132  166.3387 C.ar    1  UNL1        0.0850
     14 N         138.5631  139.2051  167.6839 N.ar    1  UNL1       -0.2422
     15 C         139.2521  140.0338  168.7272 C.ar    1  UNL1        0.1175
     16 C         140.5762  140.6706  168.4252 C.ar    1  UNL1        0.0989
     17 C         143.4760  141.3031  165.9240 C.3     1  UNL1        0.0949
     18 C         144.0118  140.0454  165.3066 C.3     1  UNL1        0.0548
     19 C         144.9749  140.1244  164.1594 C.3     1  UNL1        0.1441
     20 O         145.4023  141.4610  163.6295 O.3     1  UNL1       -0.3536
     21 C         144.8666  142.7187  164.2470 C.3     1  UNL1        0.1441
     22 C         143.9034  142.6397  165.3942 C.3     1  UNL1        0.0548
     23 C         141.1033  138.4375  162.3026 C.ar    1  UNL1        0.0216
     24 C         142.5388  138.0137  162.2045 C.ar    1  UNL1        0.0064
     25 C         143.1739  137.8217  160.8592 C.ar    1  UNL1        0.0577
     26 C         142.3735  138.0537  159.6121 C.ar    1  UNL1        0.2249
     27 N         140.9380  138.4776  159.7102 N.ar    1  UNL1       -0.2101
     28 C         140.3029  138.6695  161.0555 C.ar    1  UNL1        0.1021
     29 O         143.0085  137.8618  158.2667 O.3     1  UNL1       -0.4602
     30 C         143.1759  139.0315  157.3427 C.3     1  UNL1        0.2085
     31 C         143.6225  140.3571  157.8841 C.3     1  UNL1        0.0647
     32 C         142.6310  141.4694  158.0564 C.3     1  UNL1        0.0759
     33 N         142.0218  141.7294  159.4022 N.3     1  UNL1       -0.2726
     34 C         142.8549  141.5911  160.6419 C.3     1  UNL1        0.0721
     35 C         142.2457  141.8511  161.9878 C.3     1  UNL1        0.0174
     36 C         140.8034  142.2494  162.0939 C.3     1  UNL1        0.0029
     37 C         139.9704  142.3877  160.8542 C.3     1  UNL1        0.0174
     38 C         140.5795  142.1277  159.5084 C.3     1  UNL1        0.0721
@<TRIPOS>BOND
     1     1     2    1
     2     2     3   ar
     3     3     4    2
     4     3     5   ar
     5     5    17    1
     6    17    18    1
     7    18    19    1
     8    19    20    1
     9    20    21    1
    10    21    22    1
    11     5     6   ar
    12     6     7   ar
    13     7     8   ar
    14     8     9   ar
    15     9    23    1
    16    23    24   ar
    17    24    25   ar
    18    25    26   ar
    19    26    29    1
    20    29    30    1
    21    30    31    1
    22    31    32    1
    23    32    33    1
    24    33    34    1
    25    34    35    1
    26    35    36    1
    27    36    37    1
    28    37    38    1
    29    26    27   ar
    30    27    28   ar
    31     9    10   ar
    32    10    11    1
    33    10    12   ar
    34    12    13   ar
    35    13    14   ar
    36    14    15   ar
    37    15    16   ar
    38    16     2   ar
    39    22    17    1
    40    16     6   ar
    41    13     7   ar
    42    28    23   ar
    43    38    33    1
@<TRIPOS>MOLECULE
*****
 38 43 0 0 0
SMALL
GASTEIGER

@<TRIPOS>ATOM
      1 C         139.9061  140.2377  170.4281 C.3     1  UNL1        0.1352
      2 N         140.1163  140.3567  168.9476 N.ar    1  UNL1       -0.2765
      3 C         139.2545  139.7456  167.8828 C.ar    1  UNL1        0.3316
      4 O         138.0311  138.9082  168.1114 O.2     1  UNL1       -0.2463
      5 N         139.8308  140.1190  166.5492 N.ar    1  UNL1       -0.2815
      6 C         141.0487  140.9608  166.7898 C.ar    1  UNL1        0.0826
      7 C         142.0199  141.6125  165.8507 C.ar    1  UNL1        0.0352
      8 C         141.8435  141.4655  164.3683 C.ar    1  UNL1        0.0053
      9 C         142.8147  142.1172  163.4291 C.ar    1  UNL1        0.0291
     10 C         143.9624  142.9159  163.9723 C.ar    1  UNL1        0.1416
     11 F         144.9336  143.5676  163.0331 F       1  UNL1       -0.2041
     12 C         144.1388  143.0629  165.4546 C.ar    1  UNL1        0.0488
     13 C         143.1676  142.4111  166.3938 C.ar    1  UNL1        0.0850
     14 N         143.3441  142.5581  167.8761 N.ar    1  UNL1       -0.2422
     15 C         142.3729  141.9064  168.8152 C.ar    1  UNL1        0.1175
     16 C         141.2252  141.1077  168.2721 C.ar    1  UNL1        0.0989
     17 C         139.2850  139.7204  165.2101 C.3     1  UNL1        0.0949
     18 C         138.3338  140.6278  164.4876 C.3     1  UNL1        0.0548
     19 C         137.7879  140.2293  163.1485 C.3     1  UNL1        0.1441
     20 O         138.1932  138.9235  162.5318 O.3     1  UNL1       -0.3536
     21 C         139.1444  138.0161  163.2542 C.3     1  UNL1        0.1441
     22 C         139.6903  138.4146  164.5933 C.3     1  UNL1        0.0548
     23 C         142.6383  141.9703  161.9468 C.ar    1  UNL1        0.0216
     24 C         143.1279  143.0459  161.0230 C.ar    1  UNL1        0.0064
     25 C         142.9515  142.8990  159.5407 C.ar    1  UNL1        0.0577
     26 C         142.2855  141.6765  158.9822 C.ar    1  UNL1        0.2249
     27 N         141.7958  140.6010  159.9060 N.ar    1  UNL1       -0.2101
     28 C         141.9722  140.7479  161.3883 C.ar    1  UNL1        0.1021
     29 O         142.1090  141.5296  157.4998 O.3     1  UNL1       -0.4602
     30 C         141.1420  142.4127  156.7684 C.3     1  UNL1        0.2085
     31 C         139.8543  142.8180  157.4223 C.3     1  UNL1        0.0647
     32 C         139.7328  144.1665  158.0678 C.3     1  UNL1        0.0759
     33 N         139.7523  144.2869  159.5628 N.3     1  UNL1       -0.2726
     34 C         139.2160  143.1729  160.4120 C.3     1  UNL1        0.0721
     35 C         139.2355  143.2933  161.9071 C.3     1  UNL1        0.0174
     36 C         139.7913  144.5278  162.5529 C.3     1  UNL1        0.0029
     37 C         140.3276  145.6419  161.7036 C.3     1  UNL1        0.0174
     38 C         140.3081  145.5215  160.2086 C.3     1  UNL1        0.0721
@<TRIPOS>BOND
     1     1     2    1
     2     2     3   ar
     3     3     4    2
     4     3     5   ar
     5     5    17    1
     6    17    18    1
     7    18    19    1
     8    19    20    1
     9    20    21    1
    10    21    22    1
    11     5     6   ar
    12     6     7   ar
    13     7     8   ar
    14     8     9   ar
    15     9    23    1
    16    23    24   ar
    17    24    25   ar
    18    25    26   ar
    19    26    29    1
    20    29    30    1
    21    30    31    1
    22    31    32    1
    23    32    33    1
    24    33    34    1
    25    34    35    1
    26    35    36    1
    27    36    37    1
    28    37    38    1
    29    26    27   ar
    30    27    28   ar
    31     9    10   ar
    32    10    11    1
    33    10    12   ar
    34    12    13   ar
    35    13    14   ar
    36    14    15   ar
    37    15    16   ar
    38    16     2   ar
    39    22    17    1
    40    16     6   ar
    41    13     7   ar
    42    28    23   ar
    43    38    33    1
@<TRIPOS>MOLECULE
*****
 38 43 0 0 0
SMALL
GASTEIGER

@<TRIPOS>ATOM
      1 C         141.5006  141.9928  170.4590 C.3     1  UNL1        0.1352
      2 N         141.6570  141.5867  169.0235 N.ar    1  UNL1       -0.2765
      3 C         142.7844  141.9773  168.1145 C.ar    1  UNL1        0.3316
      4 O         143.9535  142.8427  168.4814 O.2     1  UNL1       -0.2463
      5 N         142.5376  141.3506  166.7742 N.ar    1  UNL1       -0.2815
      6 C         141.2577  140.5727  166.8548 C.ar    1  UNL1        0.0826
      7 C         140.5174  139.7504  165.8421 C.ar    1  UNL1        0.0352
      8 C         141.0617  139.6045  164.4519 C.ar    1  UNL1        0.0053
      9 C         140.3214  138.7821  163.4391 C.ar    1  UNL1        0.0291
     10 C         139.0369  138.1056  163.8165 C.ar    1  UNL1        0.1416
     11 F         138.2966  137.2833  162.8036 F       1  UNL1       -0.2041
     12 C         138.4926  138.2515  165.2066 C.ar    1  UNL1        0.0488
     13 C         139.2329  139.0739  166.2194 C.ar    1  UNL1        0.0850
     14 N         138.6886  139.2197  167.6095 N.ar    1  UNL1       -0.2422
     15 C         139.4289  140.0421  168.6223 C.ar    1  UNL1        0.1175
     16 C         140.7134  140.7186  168.2449 C.ar    1  UNL1        0.0989
     17 C         143.4165  141.4793  165.5655 C.3     1  UNL1        0.0949
     18 C         143.4429  142.7634  164.7906 C.3     1  UNL1        0.0548
     19 C         144.3218  142.8921  163.5819 C.3     1  UNL1        0.1441
     20 O         145.1742  141.7367  163.1479 O.3     1  UNL1       -0.3536
     21 C         145.1477  140.4526  163.9227 C.3     1  UNL1        0.1441
     22 C         144.2689  140.3239  165.1315 C.3     1  UNL1        0.0548
     23 C         140.8657  138.6362  162.0489 C.ar    1  UNL1        0.0216
     24 C         140.1596  139.2846  160.8952 C.ar    1  UNL1        0.0064
     25 C         140.7038  139.1387  159.5051 C.ar    1  UNL1        0.0577
     26 C         141.9540  138.3445  159.2686 C.ar    1  UNL1        0.2249
     27 N         142.6601  137.6961  160.4223 N.ar    1  UNL1       -0.2101
     28 C         142.1159  137.8420  161.8125 C.ar    1  UNL1        0.1021
     29 O         142.4983  138.1986  157.8784 O.3     1  UNL1       -0.4602
     30 C         142.1624  136.9838  157.0652 C.3     1  UNL1        0.2085
     31 C         143.0699  135.7898  157.0905 C.3     1  UNL1        0.0647
     32 C         142.6803  134.5360  156.3651 C.3     1  UNL1        0.0759
     33 N         143.2584  133.2168  156.7838 N.3     1  UNL1       -0.2726
     34 C         142.5952  131.9394  156.3616 C.3     1  UNL1        0.0721
     35 C         143.1734  130.6201  156.7804 C.3     1  UNL1        0.0174
     36 C         144.4147  130.5783  157.6213 C.3     1  UNL1        0.0029
     37 C         145.0779  131.8558  158.0435 C.3     1  UNL1        0.0174
     38 C         144.4998  133.1750  157.6248 C.3     1  UNL1        0.0721
@<TRIPOS>BOND
     1     1     2    1
     2     2     3   ar
     3     3     4    2
     4     3     5   ar
     5     5    17    1
     6    17    18    1
     7    18    19    1
     8    19    20    1
     9    20    21    1
    10    21    22    1
    11     5     6   ar
    12     6     7   ar
    13     7     8   ar
    14     8     9   ar
    15     9    23    1
    16    23    24   ar
    17    24    25   ar
    18    25    26   ar
    19    26    29    1
    20    29    30    1
    21    30    31    1
    22    31    32    1
    23    32    33    1
    24    33    34    1
    25    34    35    1
    26    35    36    1
    27    36    37    1
    28    37    38    1
    29    26    27   ar
    30    27    28   ar
    31     9    10   ar
    32    10    11    1
    33    10    12   ar
    34    12    13   ar
    35    13    14   ar
    36    14    15   ar
    37    15    16   ar
    38    16     2   ar
    39    22    17    1
    40    16     6   ar
    41    13     7   ar
    42    28    23   ar
    43    38    33    1
@<TRIPOS>MOLECULE
*****
 38 43 0 0 0
SMALL
GASTEIGER

@<TRIPOS>ATOM
      1 C         138.9139  140.4931  170.1610 C.3     1  UNL1        0.1352
      2 N         139.4547  140.3666  168.7676 N.ar    1  UNL1       -0.2765
      3 C         138.8778  139.5210  167.6712 C.ar    1  UNL1        0.3316
      4 O         137.6586  138.6533  167.7757 O.2     1  UNL1       -0.2463
      5 N         139.7340  139.6954  166.4520 N.ar    1  UNL1       -0.2815
      6 C         140.8401  140.6488  166.7948 C.ar    1  UNL1        0.0826
      7 C         141.9821  141.1928  165.9888 C.ar    1  UNL1        0.0352
      8 C         142.1548  140.7779  164.5576 C.ar    1  UNL1        0.0053
      9 C         143.2968  141.3219  163.7516 C.ar    1  UNL1        0.0291
     10 C         144.2663  142.2808  164.3766 C.ar    1  UNL1        0.1416
     11 F         145.4084  142.8248  163.5705 F       1  UNL1       -0.2041
     12 C         144.0937  142.6957  165.8077 C.ar    1  UNL1        0.0488
     13 C         142.9516  142.1517  166.6138 C.ar    1  UNL1        0.0850
     14 N         142.7790  142.5665  168.0449 N.ar    1  UNL1       -0.2422
     15 C         141.6370  142.0225  168.8509 C.ar    1  UNL1        0.1175
     16 C         140.6675  141.0637  168.2259 C.ar    1  UNL1        0.0989
     17 C         139.5214  139.0327  165.1232 C.3     1  UNL1        0.0949
     18 C         140.3542  137.8471  164.7346 C.3     1  UNL1        0.0548
     19 C         140.1416  137.1844  163.4059 C.3     1  UNL1        0.1441
     20 O         139.0964  137.7072  162.4657 O.3     1  UNL1       -0.3536
     21 C         138.2636  138.8928  162.8543 C.3     1  UNL1        0.1441
     22 C         138.4762  139.5554  164.1830 C.3     1  UNL1        0.0548
     23 C         143.4694  140.9070  162.3204 C.ar    1  UNL1        0.0216
     24 C         143.9218  139.5150  161.9924 C.ar    1  UNL1        0.0064
     25 C         144.0944  139.1001  160.5614 C.ar    1  UNL1        0.0577
     26 C         143.8147  140.0772  159.4583 C.ar    1  UNL1        0.2249
     27 N         143.3624  141.4693  159.7862 N.ar    1  UNL1       -0.2101
     28 C         143.1897  141.8842  161.2173 C.ar    1  UNL1        0.1021
     29 O         143.9873  139.6623  158.0271 O.3     1  UNL1       -0.4602
     30 C         142.7862  139.4984  157.1437 C.3     1  UNL1        0.2085
     31 C         142.1338  138.1547  157.0066 C.3     1  UNL1        0.0647
     32 C         142.8046  136.9348  157.5651 C.3     1  UNL1        0.0759
     33 N         142.5849  135.5975  156.9223 N.3     1  UNL1       -0.2726
     34 C         143.3397  134.3971  157.4116 C.3     1  UNL1        0.0721
     35 C         143.1199  133.0597  156.7687 C.3     1  UNL1        0.0174
     36 C         142.1455  132.9228  155.6366 C.3     1  UNL1        0.0029
     37 C         141.3907  134.1232  155.1474 C.3     1  UNL1        0.0174
     38 C         141.6104  135.4605  155.7902 C.3     1  UNL1        0.0721
@<TRIPOS>BOND
     1     1     2    1
     2     2     3   ar
     3     3     4    2
     4     3     5   ar
     5     5    17    1
     6    17    18    1
     7    18    19    1
     8    19    20    1
     9    20    21    1
    10    21    22    1
    11     5     6   ar
    12     6     7   ar
    13     7     8   ar
    14     8     9   ar
    15     9    23    1
    16    23    24   ar
    17    24    25   ar
    18    25    26   ar
    19    26    29    1
    20    29    30    1
    21    30    31    1
    22    31    32    1
    23    32    33    1
    24    33    34    1
    25    34    35    1
    26    35    36    1
    27    36    37    1
    28    37    38    1
    29    26    27   ar
    30    27    28   ar
    31     9    10   ar
    32    10    11    1
    33    10    12   ar
    34    12    13   ar
    35    13    14   ar
    36    14    15   ar
    37    15    16   ar
    38    16     2   ar
    39    22    17    1
    40    16     6   ar
    41    13     7   ar
    42    28    23   ar
    43    38    33    1
@<TRIPOS>MOLECULE
*****
 38 43 0 0 0
SMALL
GASTEIGER

@<TRIPOS>ATOM
      1 C         140.7280  141.2417  156.0927 C.3     1  UNL1        0.1352
      2 N         140.9245  140.9471  157.5502 N.ar    1  UNL1       -0.2765
      3 C         139.9971  140.1537  158.4223 C.ar    1  UNL1        0.3316
      4 O         138.7103  139.5156  157.9898 O.2     1  UNL1       -0.2463
      5 N         140.5824  140.1104  159.8027 N.ar    1  UNL1       -0.2815
      6 C         141.8716  140.8770  159.7838 C.ar    1  UNL1        0.0826
      7 C         142.8803  141.1711  160.8544 C.ar    1  UNL1        0.0352
      8 C         142.6688  140.6540  162.2465 C.ar    1  UNL1        0.0053
      9 C         143.6775  140.9480  163.3170 C.ar    1  UNL1        0.0291
     10 C         144.8976  141.7591  162.9955 C.ar    1  UNL1        0.1416
     11 F         145.9063  142.0531  164.0661 F       1  UNL1       -0.2041
     12 C         145.1091  142.2762  161.6035 C.ar    1  UNL1        0.0488
     13 C         144.1004  141.9822  160.5328 C.ar    1  UNL1        0.0850
     14 N         144.3118  142.4993  159.1408 N.ar    1  UNL1       -0.2422
     15 C         143.3032  142.2053  158.0703 C.ar    1  UNL1        0.1175
     16 C         142.0830  141.3941  158.3918 C.ar    1  UNL1        0.0989
     17 C         139.9837  139.4215  160.9930 C.3     1  UNL1        0.0949
     18 C         140.6321  138.1894  161.5511 C.3     1  UNL1        0.0548
     19 C         140.0334  137.5004  162.7415 C.3     1  UNL1        0.1441
     20 O         138.7863  138.0435  163.3737 O.3     1  UNL1       -0.3536
     21 C         138.1379  139.2756  162.8156 C.3     1  UNL1        0.1441
     22 C         138.7366  139.9646  161.6252 C.3     1  UNL1        0.0548
     23 C         143.4661  140.4309  164.7092 C.ar    1  UNL1        0.0216
     24 C         143.3946  138.9533  164.9576 C.ar    1  UNL1        0.0064
     25 C         143.1832  138.4362  166.3496 C.ar    1  UNL1        0.0577
     26 C         143.0433  139.3966  167.4933 C.ar    1  UNL1        0.2249
     27 N         143.1148  140.8742  167.2449 N.ar    1  UNL1       -0.2101
     28 C         143.3262  141.3913  165.8528 C.ar    1  UNL1        0.1021
     29 O         142.8319  138.8795  168.8854 O.3     1  UNL1       -0.4602
     30 C         142.3727  139.8094  169.9692 C.3     1  UNL1        0.2085
     31 C         140.9241  139.8533  170.3558 C.3     1  UNL1        0.0647
     32 C         140.0571  140.9846  169.8885 C.3     1  UNL1        0.0759
     33 N         139.9690  141.3075  168.4263 N.3     1  UNL1       -0.2726
     34 C         140.2767  142.6943  167.9446 C.3     1  UNL1        0.0721
     35 C         140.1885  143.0172  166.4824 C.3     1  UNL1        0.0174
     36 C         139.7927  141.9532  165.5019 C.3     1  UNL1        0.0029
     37 C         139.4850  140.5664  165.9837 C.3     1  UNL1        0.0174
     38 C         139.5732  140.2435  167.4458 C.3     1  UNL1        0.0721
@<TRIPOS>BOND
     1     1     2    1
     2     2     3   ar
     3     3     4    2
     4     3     5   ar
     5     5    17    1
     6    17    18    1
     7    18    19    1
     8    19    20    1
     9    20    21    1
    10    21    22    1
    11     5     6   ar
    12     6     7   ar
    13     7     8   ar
    14     8     9   ar
    15     9    23    1
    16    23    24   ar
    17    24    25   ar
    18    25    26   ar
    19    26    29    1
    20    29    30    1
    21    30    31    1
    22    31    32    1
    23    32    33    1
    24    33    34    1
    25    34    35    1
    26    35    36    1
    27    36    37    1
    28    37    38    1
    29    26    27   ar
    30    27    28   ar
    31     9    10   ar
    32    10    11    1
    33    10    12   ar
    34    12    13   ar
    35    13    14   ar
    36    14    15   ar
    37    15    16   ar
    38    16     2   ar
    39    22    17    1
    40    16     6   ar
    41    13     7   ar
    42    28    23   ar
    43    38    33    1
@<TRIPOS>MOLECULE
*****
 38 43 0 0 0
SMALL
GASTEIGER

@<TRIPOS>ATOM
      1 C         139.7837  144.7231  156.2166 C.3     1  UNL1        0.1352
      2 N         140.2331  144.0736  157.4918 N.ar    1  UNL1       -0.2765
      3 C         141.2240  144.6371  158.4667 C.ar    1  UNL1        0.3316
      4 O         141.9396  145.9491  158.3376 O.2     1  UNL1       -0.2463
      5 N         141.3737  143.6582  159.5935 N.ar    1  UNL1       -0.2815
      6 C         140.4753  142.4898  159.3150 C.ar    1  UNL1        0.0826
      7 C         140.2081  141.2253  160.0762 C.ar    1  UNL1        0.0352
      8 C         140.9131  140.9686  161.3752 C.ar    1  UNL1        0.0053
      9 C         140.6459  139.7041  162.1364 C.ar    1  UNL1        0.0291
     10 C         139.6737  138.6962  161.5988 C.ar    1  UNL1        0.1416
     11 F         139.4064  137.4317  162.3601 F       1  UNL1       -0.2041
     12 C         138.9687  138.9529  160.3000 C.ar    1  UNL1        0.0488
     13 C         139.2359  140.2174  159.5386 C.ar    1  UNL1        0.0850
     14 N         138.5309  140.4741  158.2398 N.ar    1  UNL1       -0.2422
     15 C         138.7981  141.7386  157.4785 C.ar    1  UNL1        0.1175
     16 C         139.7703  142.7465  158.0161 C.ar    1  UNL1        0.0989
     17 C         142.2654  143.8195  160.7889 C.3     1  UNL1        0.0949
     18 C         143.6201  143.1758  160.8064 C.3     1  UNL1        0.0548
     19 C         144.5117  143.3371  162.0018 C.3     1  UNL1        0.1441
     20 O         144.0487  144.1421  163.1797 O.3     1  UNL1       -0.3536
     21 C         142.6940  144.7859  163.1622 C.3     1  UNL1        0.1441
     22 C         141.8023  144.6246  161.9668 C.3     1  UNL1        0.0548
     23 C         141.3509  139.4474  163.4353 C.ar    1  UNL1        0.0216
     24 C         141.2443  138.1038  164.0938 C.ar    1  UNL1        0.0064
     25 C         141.9492  137.8471  165.3926 C.ar    1  UNL1        0.0577
     26 C         142.7608  138.9339  166.0331 C.ar    1  UNL1        0.2249
     27 N         142.8674  140.2774  165.3746 N.ar    1  UNL1       -0.2101
     28 C         142.1625  140.5342  164.0758 C.ar    1  UNL1        0.1021
     29 O         143.4658  138.6772  167.3320 O.3     1  UNL1       -0.4602
     30 C         142.7827  138.9892  168.6305 C.3     1  UNL1        0.2085
     31 C         142.0132  140.2674  168.7849 C.3     1  UNL1        0.0647
     32 C         140.5134  140.2463  168.7708 C.3     1  UNL1        0.0759
     33 N         139.7732  140.4079  167.4762 N.3     1  UNL1       -0.2726
     34 C         139.9075  141.6777  166.6890 C.3     1  UNL1        0.0721
     35 C         139.1672  141.8393  165.3944 C.3     1  UNL1        0.0174
     36 C         138.2927  140.7312  164.8870 C.3     1  UNL1        0.0029
     37 C         138.1585  139.4615  165.6743 C.3     1  UNL1        0.0174
     38 C         138.8986  139.2998  166.9688 C.3     1  UNL1        0.0721
@<TRIPOS>BOND
     1     1     2    1
     2     2     3   ar
     3     3     4    2
     4     3     5   ar
     5     5    17    1
     6    17    18    1
     7    18    19    1
     8    19    20    1
     9    20    21    1
    10    21    22    1
    11     5     6   ar
    12     6     7   ar
    13     7     8   ar
    14     8     9   ar
    15     9    23    1
    16    23    24   ar
    17    24    25   ar
    18    25    26   ar
    19    26    29    1
    20    29    30    1
    21    30    31    1
    22    31    32    1
    23    32    33    1
    24    33    34    1
    25    34    35    1
    26    35    36    1
    27    36    37    1
    28    37    38    1
    29    26    27   ar
    30    27    28   ar
    31     9    10   ar
    32    10    11    1
    33    10    12   ar
    34    12    13   ar
    35    13    14   ar
    36    14    15   ar
    37    15    16   ar
    38    16     2   ar
    39    22    17    1
    40    16     6   ar
    41    13     7   ar
    42    28    23   ar
    43    38    33    1
@<TRIPOS>MOLECULE
*****
 38 43 0 0 0
SMALL
GASTEIGER

@<TRIPOS>ATOM
      1 C         143.0331  140.6359  169.5714 C.3     1  UNL1        0.1352
      2 N         142.4136  140.5447  168.2084 N.ar    1  UNL1       -0.2765
      3 C         142.6418  139.4510  167.2076 C.ar    1  UNL1        0.3316
      4 O         143.5295  138.2563  167.3941 O.2     1  UNL1       -0.2463
      5 N         141.8264  139.7616  165.9875 N.ar    1  UNL1       -0.2815
      6 C         141.0942  141.0473  166.2342 C.ar    1  UNL1        0.0826
      7 C         140.1440  141.8399  165.3864 C.ar    1  UNL1        0.0352
      8 C         139.7810  141.3558  164.0138 C.ar    1  UNL1        0.0053
      9 C         138.8308  142.1484  163.1660 C.ar    1  UNL1        0.0291
     10 C         138.2434  143.4250  163.6907 C.ar    1  UNL1        0.1416
     11 F         137.2931  144.2176  162.8428 F       1  UNL1       -0.2041
     12 C         138.6064  143.9090  165.0633 C.ar    1  UNL1        0.0488
     13 C         139.5567  143.1165  165.9112 C.ar    1  UNL1        0.0850
     14 N         139.9196  143.6005  167.2837 N.ar    1  UNL1       -0.2422
     15 C         140.8699  142.8079  168.1315 C.ar    1  UNL1        0.1175
     16 C         141.4572  141.5313  167.6068 C.ar    1  UNL1        0.0989
     17 C         141.7555  138.9321  164.7398 C.3     1  UNL1        0.0949
     18 C         140.5825  138.0267  164.5066 C.3     1  UNL1        0.0548
     19 C         140.5116  137.1972  163.2589 C.3     1  UNL1        0.1441
     20 O         141.6137  137.2730  162.2442 O.3     1  UNL1       -0.3536
     21 C         142.7867  138.1784  162.4773 C.3     1  UNL1        0.1441
     22 C         142.8575  139.0079  163.7251 C.3     1  UNL1        0.0548
     23 C         138.4678  141.6644  161.7933 C.ar    1  UNL1        0.0216
     24 C         138.7742  142.5115  160.5940 C.ar    1  UNL1        0.0064
     25 C         138.4113  142.0276  159.2214 C.ar    1  UNL1        0.0577
     26 C         137.7419  140.6965  159.0482 C.ar    1  UNL1        0.2249
     27 N         137.4354  139.8493  160.2475 N.ar    1  UNL1       -0.2101
     28 C         137.7984  140.3333  161.6201 C.ar    1  UNL1        0.1021
     29 O         137.3789  140.2125  157.6756 O.3     1  UNL1       -0.4602
     30 C         137.1896  141.1962  156.5591 C.3     1  UNL1        0.2085
     31 C         136.4199  140.8011  155.3338 C.3     1  UNL1        0.0647
     32 C         135.0536  141.3702  155.0904 C.3     1  UNL1        0.0759
     33 N         133.8425  140.6720  155.6342 N.3     1  UNL1       -0.2726
     34 C         132.5175  141.3746  155.6543 C.3     1  UNL1        0.0721
     35 C         131.3064  140.6763  156.1981 C.3     1  UNL1        0.0174
     36 C         131.4204  139.2753  156.7217 C.3     1  UNL1        0.0029
     37 C         132.7455  138.5726  156.7015 C.3     1  UNL1        0.0174
     38 C         133.9565  139.2709  156.1578 C.3     1  UNL1        0.0721
@<TRIPOS>BOND
     1     1     2    1
     2     2     3   ar
     3     3     4    2
     4     3     5   ar
     5     5    17    1
     6    17    18    1
     7    18    19    1
     8    19    20    1
     9    20    21    1
    10    21    22    1
    11     5     6   ar
    12     6     7   ar
    13     7     8   ar
    14     8     9   ar
    15     9    23    1
    16    23    24   ar
    17    24    25   ar
    18    25    26   ar
    19    26    29    1
    20    29    30    1
    21    30    31    1
    22    31    32    1
    23    32    33    1
    24    33    34    1
    25    34    35    1
    26    35    36    1
    27    36    37    1
    28    37    38    1
    29    26    27   ar
    30    27    28   ar
    31     9    10   ar
    32    10    11    1
    33    10    12   ar
    34    12    13   ar
    35    13    14   ar
    36    14    15   ar
    37    15    16   ar
    38    16     2   ar
    39    22    17    1
    40    16     6   ar
    41    13     7   ar
    42    28    23   ar
    43    38    33    1
@<TRIPOS>MOLECULE
*****
 38 43 0 0 0
SMALL
GASTEIGER

@<TRIPOS>ATOM
      1 C         140.6949  139.9004  170.0825 C.3     1  UNL1        0.1352
      2 N         140.6411  140.3462  168.6513 N.ar    1  UNL1       -0.2765
      3 C         139.5723  139.9967  167.6586 C.ar    1  UNL1        0.3316
      4 O         138.3696  139.1401  167.9227 O.2     1  UNL1       -0.2463
      5 N         139.9173  140.6543  166.3553 N.ar    1  UNL1       -0.2815
      6 C         141.1994  141.4101  166.5425 C.ar    1  UNL1        0.0826
      7 C         142.0173  142.2471  165.6042 C.ar    1  UNL1        0.0352
      8 C         141.5699  142.4376  164.1851 C.ar    1  UNL1        0.0053
      9 C         142.3878  143.2746  163.2468 C.ar    1  UNL1        0.0291
     10 C         143.6530  143.9212  163.7276 C.ar    1  UNL1        0.1416
     11 F         144.4710  144.7583  162.7892 F       1  UNL1       -0.2041
     12 C         144.1004  143.7308  165.1465 C.ar    1  UNL1        0.0488
     13 C         143.2825  142.8937  166.0849 C.ar    1  UNL1        0.0850
     14 N         143.7298  142.7033  167.5039 N.ar    1  UNL1       -0.2422
     15 C         142.9120  141.8663  168.4422 C.ar    1  UNL1        0.1175
     16 C         141.6467  141.2197  167.9615 C.ar    1  UNL1        0.0989
     17 C         139.1202  140.5707  165.0873 C.3     1  UNL1        0.0949
     18 C         138.1882  141.6846  164.7125 C.3     1  UNL1        0.0548
     19 C         137.3911  141.6011  163.4446 C.3     1  UNL1        0.1441
     20 O         137.5260  140.4036  162.5514 O.3     1  UNL1       -0.3536
     21 C         138.4580  139.2897  162.9262 C.3     1  UNL1        0.1441
     22 C         139.2551  139.3732  164.1941 C.3     1  UNL1        0.0548
     23 C         141.9405  143.4651  161.8278 C.ar    1  UNL1        0.0216
     24 C         140.8411  144.4353  161.5118 C.ar    1  UNL1        0.0064
     25 C         140.3937  144.6258  160.0928 C.ar    1  UNL1        0.0577
     26 C         141.0458  143.8460  158.9898 C.ar    1  UNL1        0.2249
     27 N         142.1452  142.8757  159.3058 N.ar    1  UNL1       -0.2101
     28 C         142.5926  142.6853  160.7248 C.ar    1  UNL1        0.1021
     29 O         140.5985  144.0365  157.5707 O.3     1  UNL1       -0.4602
     30 C         139.9840  145.3373  157.1462 C.3     1  UNL1        0.2085
     31 C         140.6732  146.1950  156.1268 C.3     1  UNL1        0.0647
     32 C         139.8950  146.7686  154.9798 C.3     1  UNL1        0.0759
     33 N         139.6033  148.2391  154.9322 N.3     1  UNL1       -0.2726
     34 C         138.7652  148.8725  156.0029 C.3     1  UNL1        0.0721
     35 C         138.4735  150.3432  155.9553 C.3     1  UNL1        0.0174
     36 C         139.0200  151.1804  154.8371 C.3     1  UNL1        0.0029
     37 C         139.8582  150.5470  153.7665 C.3     1  UNL1        0.0174
     38 C         140.1499  149.0764  153.8140 C.3     1  UNL1        0.0721
@<TRIPOS>BOND
     1     1     2    1
     2     2     3   ar
     3     3     4    2
     4     3     5   ar
     5     5    17    1
     6    17    18    1
     7    18    19    1
     8    19    20    1
     9    20    21    1
    10    21    22    1
    11     5     6   ar
    12     6     7   ar
    13     7     8   ar
    14     8     9   ar
    15     9    23    1
    16    23    24   ar
    17    24    25   ar
    18    25    26   ar
    19    26    29    1
    20    29    30    1
    21    30    31    1
    22    31    32    1
    23    32    33    1
    24    33    34    1
    25    34    35    1
    26    35    36    1
    27    36    37    1
    28    37    38    1
    29    26    27   ar
    30    27    28   ar
    31     9    10   ar
    32    10    11    1
    33    10    12   ar
    34    12    13   ar
    35    13    14   ar
    36    14    15   ar
    37    15    16   ar
    38    16     2   ar
    39    22    17    1
    40    16     6   ar
    41    13     7   ar
    42    28    23   ar
    43    38    33    1
