@<TRIPOS>MOLECULE
*****
 30 33 0 0 0
SMALL
GASTEIGER

@<TRIPOS>ATOM
      1 C         144.1878  141.0815  162.3361 C.3     1  UNL1        0.0219
      2 C         142.9695  141.9051  162.6318 C.3     1  UNL1        0.0820
      3 C         142.3494  142.7414  161.5519 C.3     1  UNL1        0.0671
      4 C         141.1310  143.5650  161.8475 C.ar    1  UNL1        0.0837
      5 C         140.5328  143.5522  163.2230 C.ar    1  UNL1        0.1159
      6 N         139.3385  144.4597  163.2175 N.ar    1  UNL1       -0.1314
      7 N         139.1986  145.0333  161.8386 N.ar    1  UNL1       -0.0576
      8 N         140.3064  144.4803  160.9919 N.ar    1  UNL1       -0.1813
      9 C         141.1529  142.7160  164.3029 C.3     1  UNL1        0.1426
     10 N         142.3713  141.8924  164.0072 N.am    1  UNL1       -0.2715
     11 C         142.9914  141.0561  165.0871 C.2     1  UNL1        0.2515
     12 O         144.2097  140.2325  164.7915 O.2     1  UNL1       -0.2698
     13 C         140.5473  144.7886  159.5438 C.ar    1  UNL1        0.2543
     14 N         141.7672  145.5592  159.1340 N.ar    1  UNL1       -0.2060
     15 C         142.0082  145.8675  157.6858 C.ar    1  UNL1        0.1332
     16 C         141.0293  145.4051  156.6477 C.ar    1  UNL1        0.1784
     17 F         141.2702  145.7134  155.1996 F       1  UNL1       -0.2009
     18 C         139.8094  144.6344  157.0576 C.ar    1  UNL1        0.1332
     19 N         139.5684  144.3261  158.5056 N.ar    1  UNL1       -0.2060
     20 C         142.3932  141.0434  166.4626 C.ar    1  UNL1        0.0840
     21 C         141.2706  140.1016  166.7836 C.ar    1  UNL1        0.0274
     22 C         140.6724  140.0889  168.1590 C.ar    1  UNL1        0.0991
     23 N         141.1967  141.0179  169.2136 N.ar    1  UNL1       -0.2377
     24 C         142.3192  141.9597  168.8926 C.ar    1  UNL1        0.1802
     25 C         142.9175  141.9724  167.5171 C.ar    1  UNL1        0.1660
     26 F         144.0400  142.9141  167.1961 F       1  UNL1       -0.2025
     27 C         142.8436  142.8887  169.9471 C.3     1  UNL1        0.4370
     28 F         143.3679  143.8179  171.0015 F       1  UNL1       -0.1643
     29 F         141.5756  143.6867  169.8745 F       1  UNL1       -0.1643
     30 F         144.1116  142.0907  170.0197 F       1  UNL1       -0.1643
@<TRIPOS>BOND
     1     2     1    1
     2     2     3    1
     3     3     4    1
     4     4     5   ar
     5     5     6   ar
     6     6     7   ar
     7     7     8   ar
     8     8    13    1
     9    13    14   ar
    10    14    15   ar
    11    15    16   ar
    12    16    17    1
    13    16    18   ar
    14    18    19   ar
    15     5     9    1
    16     9    10    1
    17    10    11   am
    18    11    12    2
    19    11    20    1
    20    20    21   ar
    21    21    22   ar
    22    22    23   ar
    23    23    24   ar
    24    24    27    1
    25    27    28    1
    26    27    29    1
    27    27    30    1
    28    24    25   ar
    29    25    26    1
    30    10     2    1
    31    25    20   ar
    32     8     4   ar
    33    19    13   ar
@<TRIPOS>MOLECULE
*****
 30 33 0 0 0
SMALL
GASTEIGER

@<TRIPOS>ATOM
      1 C         141.4765  139.3948  162.8591 C.3     1  UNL1        0.0219
      2 C         141.1072  140.8039  163.2173 C.3     1  UNL1        0.0820
      3 C         140.9534  141.8359  162.1397 C.3     1  UNL1        0.0671
      4 C         140.5841  143.2449  162.4978 C.ar    1  UNL1        0.0837
      5 C         140.3687  143.6219  163.9336 C.ar    1  UNL1        0.1159
      6 N         140.0149  145.0788  163.9823 N.ar    1  UNL1       -0.1314
      7 N         140.0117  145.6022  162.5765 N.ar    1  UNL1       -0.0576
      8 N         140.3635  144.4688  161.6591 N.ar    1  UNL1       -0.1813
      9 C         140.5226  142.5899  165.0112 C.3     1  UNL1        0.1426
     10 N         140.8918  141.1809  164.6530 N.am    1  UNL1       -0.2715
     11 C         141.0457  140.1488  165.7307 C.2     1  UNL1        0.2515
     12 O         141.4149  138.7398  165.3725 O.2     1  UNL1       -0.2698
     13 C         140.4750  144.5458  160.1652 C.ar    1  UNL1        0.2543
     14 N         139.4906  143.8149  159.3010 N.ar    1  UNL1       -0.2060
     15 C         139.6021  143.8919  157.8071 C.ar    1  UNL1        0.1332
     16 C         140.6980  144.6996  157.1775 C.ar    1  UNL1        0.1784
     17 F         140.8095  144.7766  155.6836 F       1  UNL1       -0.2009
     18 C         141.6824  145.4305  158.0418 C.ar    1  UNL1        0.1332
     19 N         141.5709  145.3536  159.5356 N.ar    1  UNL1       -0.2060
     20 C         140.8302  140.5258  167.1665 C.ar    1  UNL1        0.0840
     21 C         139.6025  140.0564  167.8891 C.ar    1  UNL1        0.0274
     22 C         139.3870  140.4334  169.3249 C.ar    1  UNL1        0.0991
     23 N         140.3994  141.2799  170.0380 N.ar    1  UNL1       -0.2377
     24 C         141.6272  141.7493  169.3154 C.ar    1  UNL1        0.1802
     25 C         141.8426  141.3723  167.8796 C.ar    1  UNL1        0.1660
     26 F         143.0704  141.8417  167.1570 F       1  UNL1       -0.2025
     27 C         142.6397  142.5958  170.0285 C.3     1  UNL1        0.4370
     28 F         143.6520  143.4424  170.7416 F       1  UNL1       -0.1643
     29 F         141.6848  143.7525  170.0110 F       1  UNL1       -0.1643
     30 F         143.5945  141.4391  170.0460 F       1  UNL1       -0.1643
@<TRIPOS>BOND
     1     2     1    1
     2     2     3    1
     3     3     4    1
     4     4     5   ar
     5     5     6   ar
     6     6     7   ar
     7     7     8   ar
     8     8    13    1
     9    13    14   ar
    10    14    15   ar
    11    15    16   ar
    12    16    17    1
    13    16    18   ar
    14    18    19   ar
    15     5     9    1
    16     9    10    1
    17    10    11   am
    18    11    12    2
    19    11    20    1
    20    20    21   ar
    21    21    22   ar
    22    22    23   ar
    23    23    24   ar
    24    24    27    1
    25    27    28    1
    26    27    29    1
    27    27    30    1
    28    24    25   ar
    29    25    26    1
    30    10     2    1
    31    25    20   ar
    32     8     4   ar
    33    19    13   ar
@<TRIPOS>MOLECULE
*****
 30 33 0 0 0
SMALL
GASTEIGER

@<TRIPOS>ATOM
      1 C         140.6206  139.0480  163.2686 C.3     1  UNL1        0.0219
      2 C         141.4779  140.2525  163.5218 C.3     1  UNL1        0.0820
      3 C         142.0355  141.0321  162.3680 C.3     1  UNL1        0.0671
      4 C         142.8928  142.2366  162.6211 C.ar    1  UNL1        0.0837
      5 C         143.1926  142.6616  164.0280 C.ar    1  UNL1        0.1159
      6 N         144.0622  143.8824  163.9682 N.ar    1  UNL1       -0.1314
      7 N         144.2998  144.2118  162.5243 N.ar    1  UNL1       -0.0576
      8 N         143.5771  143.1947  161.6917 N.ar    1  UNL1       -0.1813
      9 C         142.6350  141.8821  165.1819 C.3     1  UNL1        0.1426
     10 N         141.7776  140.6775  164.9287 N.am    1  UNL1       -0.2715
     11 C         141.2200  139.8979  166.0826 C.2     1  UNL1        0.2515
     12 O         140.3627  138.6934  165.8295 O.2     1  UNL1       -0.2698
     13 C         143.5445  143.1446  160.1929 C.ar    1  UNL1        0.2543
     14 N         142.6265  144.0544  159.4319 N.ar    1  UNL1       -0.2060
     15 C         142.5938  144.0043  157.9330 C.ar    1  UNL1        0.1332
     16 C         143.4792  143.0443  157.1953 C.ar    1  UNL1        0.1784
     17 F         143.4466  142.9942  155.6965 F       1  UNL1       -0.2009
     18 C         144.3974  142.1344  157.9564 C.ar    1  UNL1        0.1332
     19 N         144.4300  142.1845  159.4551 N.ar    1  UNL1       -0.2060
     20 C         141.5198  140.3229  167.4896 C.ar    1  UNL1        0.0840
     21 C         142.5568  139.5914  168.2892 C.ar    1  UNL1        0.0274
     22 C         142.8566  140.0164  169.6962 C.ar    1  UNL1        0.0991
     23 N         142.1193  141.1729  170.3035 N.ar    1  UNL1       -0.2377
     24 C         141.0823  141.9044  169.5039 C.ar    1  UNL1        0.1802
     25 C         140.7825  141.4794  168.0969 C.ar    1  UNL1        0.1660
     26 F         139.7455  142.2109  167.2973 F       1  UNL1       -0.2025
     27 C         140.3449  143.0610  170.1111 C.3     1  UNL1        0.4370
     28 F         139.6076  144.2176  170.7184 F       1  UNL1       -0.1643
     29 F         141.5489  143.9331  169.9117 F       1  UNL1       -0.1643
     30 F         139.1410  142.1888  170.3105 F       1  UNL1       -0.1643
@<TRIPOS>BOND
     1     2     1    1
     2     2     3    1
     3     3     4    1
     4     4     5   ar
     5     5     6   ar
     6     6     7   ar
     7     7     8   ar
     8     8    13    1
     9    13    14   ar
    10    14    15   ar
    11    15    16   ar
    12    16    17    1
    13    16    18   ar
    14    18    19   ar
    15     5     9    1
    16     9    10    1
    17    10    11   am
    18    11    12    2
    19    11    20    1
    20    20    21   ar
    21    21    22   ar
    22    22    23   ar
    23    23    24   ar
    24    24    27    1
    25    27    28    1
    26    27    29    1
    27    27    30    1
    28    24    25   ar
    29    25    26    1
    30    10     2    1
    31    25    20   ar
    32     8     4   ar
    33    19    13   ar
@<TRIPOS>MOLECULE
*****
 30 33 0 0 0
SMALL
GASTEIGER

@<TRIPOS>ATOM
      1 C         140.1750  143.8004  162.3783 C.3     1  UNL1        0.0219
      2 C         140.8195  142.4467  162.4253 C.3     1  UNL1        0.0820
      3 C         141.7917  142.0414  161.3574 C.3     1  UNL1        0.0671
      4 C         142.4361  140.6877  161.4044 C.ar    1  UNL1        0.0837
      5 C         142.1085  139.7393  162.5194 C.ar    1  UNL1        0.1159
      6 N         142.8949  138.4804  162.3034 N.ar    1  UNL1       -0.1314
      7 N         143.7086  138.6508  161.0549 N.ar    1  UNL1       -0.0576
      8 N         143.4251  140.0149  160.4992 N.ar    1  UNL1       -0.1813
      9 C         141.1363  140.1446  163.5874 C.3     1  UNL1        0.1426
     10 N         140.4918  141.4984  163.5403 N.am    1  UNL1       -0.2715
     11 C         139.5195  141.9037  164.6083 C.2     1  UNL1        0.2515
     12 O         138.8751  143.2574  164.5613 O.2     1  UNL1       -0.2698
     13 C         144.0252  140.6030  159.2567 C.ar    1  UNL1        0.2543
     14 N         144.6034  141.9868  159.2855 N.ar    1  UNL1       -0.2060
     15 C         145.2036  142.5749  158.0429 C.ar    1  UNL1        0.1332
     16 C         145.2255  141.7793  156.7716 C.ar    1  UNL1        0.1784
     17 F         145.8256  142.3674  155.5290 F       1  UNL1       -0.2009
     18 C         144.6472  140.3955  156.7428 C.ar    1  UNL1        0.1332
     19 N         144.0471  139.8073  157.9853 N.ar    1  UNL1       -0.2060
     20 C         139.1919  140.9553  165.7233 C.ar    1  UNL1        0.0840
     21 C         138.2147  139.8401  165.4966 C.ar    1  UNL1        0.0274
     22 C         137.8870  138.8917  166.6116 C.ar    1  UNL1        0.0991
     23 N         138.5365  139.0586  167.9533 N.ar    1  UNL1       -0.2377
     24 C         139.5137  140.1738  168.1801 C.ar    1  UNL1        0.1802
     25 C         139.8413  141.1221  167.0651 C.ar    1  UNL1        0.1660
     26 F         140.8185  142.2373  167.2918 F       1  UNL1       -0.2025
     27 C         140.1632  140.3407  169.5218 C.3     1  UNL1        0.4370
     28 F         140.8129  140.5075  170.8635 F       1  UNL1       -0.1643
     29 F         141.2648  139.4123  169.1039 F       1  UNL1       -0.1643
     30 F         139.0617  141.2690  169.9397 F       1  UNL1       -0.1643
@<TRIPOS>BOND
     1     2     1    1
     2     2     3    1
     3     3     4    1
     4     4     5   ar
     5     5     6   ar
     6     6     7   ar
     7     7     8   ar
     8     8    13    1
     9    13    14   ar
    10    14    15   ar
    11    15    16   ar
    12    16    17    1
    13    16    18   ar
    14    18    19   ar
    15     5     9    1
    16     9    10    1
    17    10    11   am
    18    11    12    2
    19    11    20    1
    20    20    21   ar
    21    21    22   ar
    22    22    23   ar
    23    23    24   ar
    24    24    27    1
    25    27    28    1
    26    27    29    1
    27    27    30    1
    28    24    25   ar
    29    25    26    1
    30    10     2    1
    31    25    20   ar
    32     8     4   ar
    33    19    13   ar
@<TRIPOS>MOLECULE
*****
 30 33 0 0 0
SMALL
GASTEIGER

@<TRIPOS>ATOM
      1 C         143.3035  142.1694  163.1070 C.3     1  UNL1        0.0219
      2 C         142.0993  141.3098  163.3541 C.3     1  UNL1        0.0820
      3 C         141.2721  140.8280  162.1993 C.3     1  UNL1        0.0671
      4 C         140.0679  139.9684  162.4464 C.ar    1  UNL1        0.0837
      5 C         139.6909  139.5906  163.8482 C.ar    1  UNL1        0.1159
      6 N         138.4590  138.7373  163.7830 N.ar    1  UNL1       -0.1314
      7 N         138.0746  138.5878  162.3408 N.ar    1  UNL1       -0.0576
      8 N         139.0689  139.3486  161.5147 N.ar    1  UNL1       -0.1813
      9 C         140.5181  140.0724  165.0030 C.3     1  UNL1        0.1426
     10 N         141.7223  140.9320  164.7559 N.am    1  UNL1       -0.2715
     11 C         142.5496  141.4139  165.9108 C.2     1  UNL1        0.2515
     12 O         143.7538  142.2735  165.6637 O.2     1  UNL1       -0.2698
     13 C         139.0650  139.4686  160.0196 C.ar    1  UNL1        0.2543
     14 N         139.9057  138.5433  159.1907 N.ar    1  UNL1       -0.2060
     15 C         139.9018  138.6632  157.6955 C.ar    1  UNL1        0.1332
     16 C         139.0572  139.7084  157.0292 C.ar    1  UNL1        0.1784
     17 F         139.0532  139.8283  155.5340 F       1  UNL1       -0.2009
     18 C         138.2165  140.6337  157.8581 C.ar    1  UNL1        0.1332
     19 N         138.2203  140.5139  159.3532 N.ar    1  UNL1       -0.2060
     20 C         142.1726  141.0361  167.3126 C.ar    1  UNL1        0.0840
     21 C         142.7207  139.7809  167.9243 C.ar    1  UNL1        0.0274
     22 C         142.3438  139.4031  169.3261 C.ar    1  UNL1        0.0991
     23 N         141.4187  140.2805  170.1163 N.ar    1  UNL1       -0.2377
     24 C         140.8706  141.5356  169.5047 C.ar    1  UNL1        0.1802
     25 C         141.2475  141.9134  168.1028 C.ar    1  UNL1        0.1660
     26 F         140.6994  143.1686  167.4912 F       1  UNL1       -0.2025
     27 C         139.9454  142.4131  170.2948 C.3     1  UNL1        0.4370
     28 F         139.0204  143.2906  171.0849 F       1  UNL1       -0.1643
     29 F         141.0228  143.4511  170.4032 F       1  UNL1       -0.1643
     30 F         138.8681  141.3750  170.1863 F       1  UNL1       -0.1643
@<TRIPOS>BOND
     1     2     1    1
     2     2     3    1
     3     3     4    1
     4     4     5   ar
     5     5     6   ar
     6     6     7   ar
     7     7     8   ar
     8     8    13    1
     9    13    14   ar
    10    14    15   ar
    11    15    16   ar
    12    16    17    1
    13    16    18   ar
    14    18    19   ar
    15     5     9    1
    16     9    10    1
    17    10    11   am
    18    11    12    2
    19    11    20    1
    20    20    21   ar
    21    21    22   ar
    22    22    23   ar
    23    23    24   ar
    24    24    27    1
    25    27    28    1
    26    27    29    1
    27    27    30    1
    28    24    25   ar
    29    25    26    1
    30    10     2    1
    31    25    20   ar
    32     8     4   ar
    33    19    13   ar
@<TRIPOS>MOLECULE
*****
 30 33 0 0 0
SMALL
GASTEIGER

@<TRIPOS>ATOM
      1 C         139.2386  140.6216  163.2292 C.3     1  UNL1        0.0219
      2 C         140.4725  141.4509  163.4290 C.3     1  UNL1        0.0820
      3 C         141.2632  141.9168  162.2425 C.3     1  UNL1        0.0671
      4 C         142.4970  142.7461  162.4421 C.ar    1  UNL1        0.0837
      5 C         142.9402  143.1096  163.8283 C.ar    1  UNL1        0.1159
      6 N         144.1888  143.9330  163.7149 N.ar    1  UNL1       -0.1314
      7 N         144.5173  144.0785  162.2585 N.ar    1  UNL1       -0.0576
      8 N         143.4718  143.3449  161.4719 N.ar    1  UNL1       -0.1813
      9 C         142.1495  142.6438  165.0148 C.3     1  UNL1        0.1426
     10 N         140.9156  141.8144  164.8151 N.am    1  UNL1       -0.2715
     11 C         140.1249  141.3486  166.0016 C.2     1  UNL1        0.2515
     12 O         138.8910  140.5192  165.8020 O.2     1  UNL1       -0.2698
     13 C         143.4116  143.2303  159.9775 C.ar    1  UNL1        0.2543
     14 N         142.5375  144.1596  159.1887 N.ar    1  UNL1       -0.2060
     15 C         142.4772  144.0451  157.6942 C.ar    1  UNL1        0.1332
     16 C         143.2911  143.0012  156.9887 C.ar    1  UNL1        0.1784
     17 F         143.2308  142.8866  155.4943 F       1  UNL1       -0.2009
     18 C         144.1652  142.0718  157.7776 C.ar    1  UNL1        0.1332
     19 N         144.2254  142.1863  159.2720 N.ar    1  UNL1       -0.2060
     20 C         140.5680  141.7121  167.3878 C.ar    1  UNL1        0.0840
     21 C         140.1458  143.0186  167.9918 C.ar    1  UNL1        0.0274
     22 C         140.5890  143.3821  169.3780 C.ar    1  UNL1        0.0991
     23 N         141.4543  142.4391  170.1602 N.ar    1  UNL1       -0.2377
     24 C         141.8765  141.1325  169.5562 C.ar    1  UNL1        0.1802
     25 C         141.4334  140.7690  168.1701 C.ar    1  UNL1        0.1660
     26 F         141.8555  139.4625  167.5661 F       1  UNL1       -0.2025
     27 C         142.7419  140.1894  170.3384 C.3     1  UNL1        0.4370
     28 F         143.6071  139.2462  171.1206 F       1  UNL1       -0.1643
     29 F         141.5919  139.2339  170.4584 F       1  UNL1       -0.1643
     30 F         143.8918  141.1450  170.2184 F       1  UNL1       -0.1643
@<TRIPOS>BOND
     1     2     1    1
     2     2     3    1
     3     3     4    1
     4     4     5   ar
     5     5     6   ar
     6     6     7   ar
     7     7     8   ar
     8     8    13    1
     9    13    14   ar
    10    14    15   ar
    11    15    16   ar
    12    16    17    1
    13    16    18   ar
    14    18    19   ar
    15     5     9    1
    16     9    10    1
    17    10    11   am
    18    11    12    2
    19    11    20    1
    20    20    21   ar
    21    21    22   ar
    22    22    23   ar
    23    23    24   ar
    24    24    27    1
    25    27    28    1
    26    27    29    1
    27    27    30    1
    28    24    25   ar
    29    25    26    1
    30    10     2    1
    31    25    20   ar
    32     8     4   ar
    33    19    13   ar
@<TRIPOS>MOLECULE
*****
 30 33 0 0 0
SMALL
GASTEIGER

@<TRIPOS>ATOM
      1 C         138.4033  144.2393  164.9997 C.3     1  UNL1        0.0219
      2 C         139.5586  143.3780  164.5830 C.3     1  UNL1        0.0820
      3 C         140.3848  142.6782  165.6211 C.3     1  UNL1        0.0671
      4 C         141.5401  141.8169  165.2045 C.ar    1  UNL1        0.0837
      5 C         141.8691  141.6554  163.7500 C.ar    1  UNL1        0.1159
      6 N         143.0588  140.7484  163.6417 N.ar    1  UNL1       -0.1314
      7 N         143.4651  140.3492  165.0294 N.ar    1  UNL1       -0.0576
      8 N         142.5265  141.0096  165.9953 N.ar    1  UNL1       -0.1813
      9 C         141.0429  142.3553  162.7120 C.3     1  UNL1        0.1426
     10 N         139.8875  143.2166  163.1286 N.am    1  UNL1       -0.2715
     11 C         139.0612  143.9165  162.0905 C.2     1  UNL1        0.2515
     12 O         137.9059  144.7778  162.5070 O.2     1  UNL1       -0.2698
     13 C         142.5672  140.8846  167.4895 C.ar    1  UNL1        0.2543
     14 N         142.2019  139.5851  168.1436 N.ar    1  UNL1       -0.2060
     15 C         142.2426  139.4600  169.6379 C.ar    1  UNL1        0.1332
     16 C         142.6485  140.6345  170.4779 C.ar    1  UNL1        0.1784
     17 F         142.6892  140.5095  171.9722 F       1  UNL1       -0.2009
     18 C         143.0138  141.9340  169.8238 C.ar    1  UNL1        0.1332
     19 N         142.9731  142.0591  168.3296 N.ar    1  UNL1       -0.2060
     20 C         139.3902  143.7550  160.6360 C.ar    1  UNL1        0.0840
     21 C         138.7648  142.6451  159.8443 C.ar    1  UNL1        0.0274
     22 C         139.0938  142.4836  158.3897 C.ar    1  UNL1        0.0991
     23 N         140.0482  143.4321  157.7269 N.ar    1  UNL1       -0.2377
     24 C         140.6737  144.5420  158.5186 C.ar    1  UNL1        0.1802
     25 C         140.3447  144.7035  159.9731 C.ar    1  UNL1        0.1660
     26 F         140.9702  145.8134  160.7649 F       1  UNL1       -0.2025
     27 C         141.6282  145.4906  157.8558 C.3     1  UNL1        0.4370
     28 F         142.5826  146.4392  157.1931 F       1  UNL1       -0.1643
     29 F         140.4977  146.4381  157.5839 F       1  UNL1       -0.1643
     30 F         142.7588  144.5430  158.1278 F       1  UNL1       -0.1643
@<TRIPOS>BOND
     1     2     1    1
     2     2     3    1
     3     3     4    1
     4     4     5   ar
     5     5     6   ar
     6     6     7   ar
     7     7     8   ar
     8     8    13    1
     9    13    14   ar
    10    14    15   ar
    11    15    16   ar
    12    16    17    1
    13    16    18   ar
    14    18    19   ar
    15     5     9    1
    16     9    10    1
    17    10    11   am
    18    11    12    2
    19    11    20    1
    20    20    21   ar
    21    21    22   ar
    22    22    23   ar
    23    23    24   ar
    24    24    27    1
    25    27    28    1
    26    27    29    1
    27    27    30    1
    28    24    25   ar
    29    25    26    1
    30    10     2    1
    31    25    20   ar
    32     8     4   ar
    33    19    13   ar
@<TRIPOS>MOLECULE
*****
 30 33 0 0 0
SMALL
GASTEIGER

@<TRIPOS>ATOM
      1 C         143.7233  144.7615  163.2256 C.3     1  UNL1        0.0219
      2 C         142.5644  143.8579  162.9244 C.3     1  UNL1        0.0820
      3 C         141.8136  144.0058  161.6343 C.3     1  UNL1        0.0671
      4 C         140.6548  143.1023  161.3331 C.ar    1  UNL1        0.0837
      5 C         140.2467  142.0509  162.3221 C.ar    1  UNL1        0.1159
      6 N         139.0720  141.3110  161.7539 N.ar    1  UNL1       -0.1314
      7 N         138.7542  141.9052  160.4138 N.ar    1  UNL1       -0.0576
      8 N         139.7323  143.0122  160.1537 N.ar    1  UNL1       -0.1813
      9 C         140.9974  141.9030  163.6122 C.3     1  UNL1        0.1426
     10 N         142.1563  142.8066  163.9134 N.am    1  UNL1       -0.2715
     11 C         142.9071  142.6588  165.2036 C.2     1  UNL1        0.2515
     12 O         144.0659  143.5623  165.5048 O.2     1  UNL1       -0.2698
     13 C         139.7797  143.8773  158.9292 C.ar    1  UNL1        0.2543
     14 N         139.5731  143.2698  157.5734 N.ar    1  UNL1       -0.2060
     15 C         139.6205  144.1349  156.3488 C.ar    1  UNL1        0.1332
     16 C         139.8745  145.6073  156.4801 C.ar    1  UNL1        0.1784
     17 F         139.9219  146.4724  155.2556 F       1  UNL1       -0.2009
     18 C         140.0811  146.2148  157.8360 C.ar    1  UNL1        0.1332
     19 N         140.0337  145.3498  159.0605 N.ar    1  UNL1       -0.2060
     20 C         142.4990  141.6074  166.1926 C.ar    1  UNL1        0.0840
     21 C         143.1895  140.2758  166.1995 C.ar    1  UNL1        0.0274
     22 C         142.7814  139.2244  167.1885 C.ar    1  UNL1        0.0991
     23 N         141.6828  139.5046  168.1705 N.ar    1  UNL1       -0.2377
     24 C         140.9922  140.8362  168.1636 C.ar    1  UNL1        0.1802
     25 C         141.4003  141.8876  167.1746 C.ar    1  UNL1        0.1660
     26 F         140.7098  143.2191  167.1677 F       1  UNL1       -0.2025
     27 C         139.8935  141.1165  169.1456 C.3     1  UNL1        0.4370
     28 F         138.7949  141.3969  170.1277 F       1  UNL1       -0.1643
     29 F         140.7629  142.1300  169.8289 F       1  UNL1       -0.1643
     30 F         139.0241  140.1030  168.4623 F       1  UNL1       -0.1643
@<TRIPOS>BOND
     1     2     1    1
     2     2     3    1
     3     3     4    1
     4     4     5   ar
     5     5     6   ar
     6     6     7   ar
     7     7     8   ar
     8     8    13    1
     9    13    14   ar
    10    14    15   ar
    11    15    16   ar
    12    16    17    1
    13    16    18   ar
    14    18    19   ar
    15     5     9    1
    16     9    10    1
    17    10    11   am
    18    11    12    2
    19    11    20    1
    20    20    21   ar
    21    21    22   ar
    22    22    23   ar
    23    23    24   ar
    24    24    27    1
    25    27    28    1
    26    27    29    1
    27    27    30    1
    28    24    25   ar
    29    25    26    1
    30    10     2    1
    31    25    20   ar
    32     8     4   ar
    33    19    13   ar
@<TRIPOS>MOLECULE
*****
 30 33 0 0 0
SMALL
GASTEIGER

@<TRIPOS>ATOM
      1 C         139.1903  138.5356  164.0622 C.3     1  UNL1        0.0219
      2 C         140.5653  139.1342  164.0262 C.3     1  UNL1        0.0820
      3 C         141.3191  139.2037  162.7312 C.3     1  UNL1        0.0671
      4 C         142.6941  139.8023  162.6951 C.ar    1  UNL1        0.0837
      5 C         143.3151  140.3313  163.9539 C.ar    1  UNL1        0.1159
      6 N         144.6759  140.8616  163.6120 N.ar    1  UNL1       -0.1314
      7 N         144.8959  140.6604  162.1419 N.ar    1  UNL1       -0.0576
      8 N         143.6711  140.0057  161.5752 N.ar    1  UNL1       -0.1813
      9 C         142.5612  140.2617  165.2488 C.3     1  UNL1        0.1426
     10 N         141.1863  139.6631  165.2849 N.am    1  UNL1       -0.2715
     11 C         140.4323  139.5935  166.5798 C.2     1  UNL1        0.2515
     12 O         139.0574  138.9950  166.6160 O.2     1  UNL1       -0.2698
     13 C         143.4603  139.6218  160.1406 C.ar    1  UNL1        0.2543
     14 N         142.9815  138.2427  159.7958 N.ar    1  UNL1       -0.2060
     15 C         142.7706  137.8588  158.3611 C.ar    1  UNL1        0.1332
     16 C         143.0386  138.8539  157.2713 C.ar    1  UNL1        0.1784
     17 F         142.8279  138.4700  155.8367 F       1  UNL1       -0.2009
     18 C         143.5175  140.2331  157.6162 C.ar    1  UNL1        0.1332
     19 N         143.7283  140.6170  159.0507 N.ar    1  UNL1       -0.2060
     20 C         141.0534  140.1225  167.8386 C.ar    1  UNL1        0.0840
     21 C         141.9326  139.2368  168.6708 C.ar    1  UNL1        0.0274
     22 C         142.5536  139.7658  169.9295 C.ar    1  UNL1        0.0991
     23 N         142.2955  141.1805  170.3561 N.ar    1  UNL1       -0.2377
     24 C         141.4163  142.0662  169.5240 C.ar    1  UNL1        0.1802
     25 C         140.7952  141.5372  168.2652 C.ar    1  UNL1        0.1660
     26 F         139.9160  142.4229  167.4330 F       1  UNL1       -0.2025
     27 C         141.1581  143.4810  169.9505 C.3     1  UNL1        0.4370
     28 F         140.8997  144.8957  170.3770 F       1  UNL1       -0.1643
     29 F         139.6805  143.2299  169.8885 F       1  UNL1       -0.1643
     30 F         142.6356  143.7320  170.0125 F       1  UNL1       -0.1643
@<TRIPOS>BOND
     1     2     1    1
     2     2     3    1
     3     3     4    1
     4     4     5   ar
     5     5     6   ar
     6     6     7   ar
     7     7     8   ar
     8     8    13    1
     9    13    14   ar
    10    14    15   ar
    11    15    16   ar
    12    16    17    1
    13    16    18   ar
    14    18    19   ar
    15     5     9    1
    16     9    10    1
    17    10    11   am
    18    11    12    2
    19    11    20    1
    20    20    21   ar
    21    21    22   ar
    22    22    23   ar
    23    23    24   ar
    24    24    27    1
    25    27    28    1
    26    27    29    1
    27    27    30    1
    28    24    25   ar
    29    25    26    1
    30    10     2    1
    31    25    20   ar
    32     8     4   ar
    33    19    13   ar
