@<TRIPOS>MOLECULE
*****
 24 26 0 0 0
SMALL
GASTEIGER

@<TRIPOS>ATOM
      1 C         139.1839  141.6605  165.3284 C.ar    1  UNL1       -0.0001
      2 C         138.1633  140.5912  165.0739 C.ar    1  UNL1       -0.0000
      3 C         138.1294  139.3657  165.9383 C.ar    1  UNL1       -0.0002
      4 C         139.1162  139.2096  167.0571 C.ar    1  UNL1       -0.0002
      5 C         140.1369  140.2791  167.3116 C.ar    1  UNL1        0.0241
      6 C         140.1707  141.5045  166.4472 C.ar    1  UNL1       -0.0002
      7 C         141.1237  140.1230  168.4304 C.3     1  UNL1        0.2202
      8 C         141.9301  139.5701  167.2929 C.3     1  UNL1        0.0607
      9 C         139.9746  140.7301  169.1794 C.3     1  UNL1        0.1958
     10 O         140.0924  140.9891  170.6522 O.3     1  UNL1       -0.3374
     11 C         141.3592  140.6410  171.3760 C.3     1  UNL1        0.2591
     12 C         142.5083  140.0339  170.6270 C.2     1  UNL1        0.3194
     13 N         143.7752  139.6858  171.3507 N.pl3   1  UNL1       -0.2480
     14 N         142.3905  139.7749  169.1542 N.2     1  UNL1       -0.0693
     15 H         143.8525  139.8558  172.3174 H       1  UNL1        0.2882
     16 H         144.5294  139.2874  170.8591 H       1  UNL1        0.2882
     17 C         140.5171  144.9072  163.4759 C.ar    1  UNL1        0.1387
     18 C         139.2855  145.3369  162.7353 C.ar    1  UNL1        0.0369
     19 C         138.0200  144.5411  162.8590 C.ar    1  UNL1        0.0031
     20 C         137.9862  143.3157  163.7234 C.ar    1  UNL1        0.0002
     21 C         139.2177  142.8860  164.4640 C.ar    1  UNL1        0.0030
     22 C         140.4832  143.6818  164.3402 C.ar    1  UNL1        0.0369
     23 C         143.1061  145.0009  163.2806 C.3     1  UNL1        0.2525
     24 O         141.7826  145.7030  163.3522 O.3     1  UNL1       -0.4714
@<TRIPOS>BOND
     1    23    24    1
     2    24    17    1
     3    17    18   ar
     4    18    19   ar
     5    19    20   ar
     6    20    21   ar
     7    21     1    1
     8     1     2   ar
     9     2     3   ar
    10     3     4   ar
    11     4     5   ar
    12     5     7    1
    13     7     8    1
    14     7     9    1
    15     9    10    1
    16    10    11    1
    17    11    12    1
    18    12    13    1
    19    12    14    2
    20     5     6   ar
    21    21    22   ar
    22    22    17   ar
    23     6     1   ar
    24    14     7    1
    25    13    15    1
    26    13    16    1
@<TRIPOS>MOLECULE
*****
 24 26 0 0 0
SMALL
GASTEIGER

@<TRIPOS>ATOM
      1 C         138.8394  140.9630  165.1696 C.ar    1  UNL1       -0.0001
      2 C         138.1626  139.6796  165.5503 C.ar    1  UNL1       -0.0000
      3 C         138.3982  139.0806  166.9052 C.ar    1  UNL1       -0.0002
      4 C         139.3106  139.7650  167.8794 C.ar    1  UNL1       -0.0002
      5 C         139.9874  141.0484  167.4987 C.ar    1  UNL1        0.0241
      6 C         139.7518  141.6474  166.1439 C.ar    1  UNL1       -0.0002
      7 C         140.8998  141.7329  168.4730 C.3     1  UNL1        0.2202
      8 C         141.4951  142.2078  167.1807 C.3     1  UNL1        0.0607
      9 C         139.9875  141.0202  169.4269 C.3     1  UNL1        0.1958
     10 O         140.1944  141.1570  170.9062 O.3     1  UNL1       -0.3374
     11 C         141.3135  142.0063  171.4317 C.3     1  UNL1        0.2591
     12 C         142.2258  142.7189  170.4778 C.2     1  UNL1        0.3194
     13 N         143.3450  143.5683  171.0031 N.pl3   1  UNL1       -0.2480
     14 N         142.0189  142.5822  168.9984 N.2     1  UNL1       -0.0693
     15 H         143.4808  143.6581  171.9741 H       1  UNL1        0.2882
     16 H         143.9437  144.0360  170.3770 H       1  UNL1        0.2882
     17 C         138.3725  143.6511  162.2876 C.ar    1  UNL1        0.1387
     18 C         138.1327  142.7600  161.1050 C.ar    1  UNL1        0.0369
     19 C         138.1284  141.2700  161.2773 C.ar    1  UNL1        0.0031
     20 C         138.3640  140.6709  162.6321 C.ar    1  UNL1        0.0002
     21 C         138.6038  141.5620  163.8147 C.ar    1  UNL1        0.0030
     22 C         138.6081  143.0521  163.6424 C.ar    1  UNL1        0.0369
     23 C         139.6739  145.8708  161.9283 C.3     1  UNL1        0.2525
     24 O         138.3767  145.1411  162.1153 O.3     1  UNL1       -0.4714
@<TRIPOS>BOND
     1    23    24    1
     2    24    17    1
     3    17    18   ar
     4    18    19   ar
     5    19    20   ar
     6    20    21   ar
     7    21     1    1
     8     1     2   ar
     9     2     3   ar
    10     3     4   ar
    11     4     5   ar
    12     5     7    1
    13     7     8    1
    14     7     9    1
    15     9    10    1
    16    10    11    1
    17    11    12    1
    18    12    13    1
    19    12    14    2
    20     5     6   ar
    21    21    22   ar
    22    22    17   ar
    23     6     1   ar
    24    14     7    1
    25    13    15    1
    26    13    16    1
@<TRIPOS>MOLECULE
*****
 24 26 0 0 0
SMALL
GASTEIGER

@<TRIPOS>ATOM
      1 C         139.6884  141.0243  166.9555 C.ar    1  UNL1       -0.0001
      2 C         139.0301  139.7555  166.5008 C.ar    1  UNL1       -0.0000
      3 C         138.4009  139.6826  165.1410 C.ar    1  UNL1       -0.0002
      4 C         138.4300  140.8786  164.2361 C.ar    1  UNL1       -0.0002
      5 C         139.0883  142.1474  164.6909 C.ar    1  UNL1        0.0241
      6 C         139.7175  142.2202  166.0506 C.ar    1  UNL1       -0.0002
      7 C         139.1174  143.3433  163.7860 C.3     1  UNL1        0.2202
      8 C         137.6719  142.9610  163.6660 C.3     1  UNL1        0.0607
      9 C         140.5528  143.3103  164.2202 C.3     1  UNL1        0.1958
     10 O         141.5153  144.3404  163.7078 O.3     1  UNL1       -0.3374
     11 C         141.0424  145.4035  162.7613 C.3     1  UNL1        0.2591
     12 C         139.6070  145.4366  162.3270 C.2     1  UNL1        0.3194
     13 N         139.1340  146.4997  161.3804 N.pl3   1  UNL1       -0.2480
     14 N         138.6445  144.4064  162.8394 N.2     1  UNL1       -0.0693
     15 H         139.7656  147.1758  161.0441 H       1  UNL1        0.2882
     16 H         138.1919  146.5214  161.0955 H       1  UNL1        0.2882
     17 C         142.0376  142.1639  169.9442 C.ar    1  UNL1        0.1387
     18 C         141.5761  141.2431  171.0346 C.ar    1  UNL1        0.0369
     19 C         140.4853  140.2493  170.7652 C.ar    1  UNL1        0.0031
     20 C         139.8561  140.1763  169.4056 C.ar    1  UNL1        0.0002
     21 C         140.3176  141.0972  168.3153 C.ar    1  UNL1        0.0030
     22 C         141.4084  142.0910  168.5846 C.ar    1  UNL1        0.0369
     23 C         144.5638  142.7659  170.0234 C.3     1  UNL1        0.2525
     24 O         143.1284  143.1578  170.2135 O.3     1  UNL1       -0.4714
@<TRIPOS>BOND
     1    23    24    1
     2    24    17    1
     3    17    18   ar
     4    18    19   ar
     5    19    20   ar
     6    20    21   ar
     7    21     1    1
     8     1     2   ar
     9     2     3   ar
    10     3     4   ar
    11     4     5   ar
    12     5     7    1
    13     7     8    1
    14     7     9    1
    15     9    10    1
    16    10    11    1
    17    11    12    1
    18    12    13    1
    19    12    14    2
    20     5     6   ar
    21    21    22   ar
    22    22    17   ar
    23     6     1   ar
    24    14     7    1
    25    13    15    1
    26    13    16    1
@<TRIPOS>MOLECULE
*****
 24 26 0 0 0
SMALL
GASTEIGER

@<TRIPOS>ATOM
      1 C         139.7596  141.8261  164.9941 C.ar    1  UNL1       -0.0001
      2 C         138.5599  140.9446  164.8104 C.ar    1  UNL1       -0.0000
      3 C         138.2846  139.8396  165.7868 C.ar    1  UNL1       -0.0002
      4 C         139.2089  139.6162  166.9468 C.ar    1  UNL1       -0.0002
      5 C         140.4086  140.4978  167.1305 C.ar    1  UNL1        0.0241
      6 C         140.6839  141.6027  166.1542 C.ar    1  UNL1       -0.0002
      7 C         141.3330  140.2743  168.2905 C.3     1  UNL1        0.2202
      8 C         142.0932  139.5628  167.2108 C.3     1  UNL1        0.0607
      9 C         140.2516  141.0634  168.9673 C.3     1  UNL1        0.1958
     10 O         140.3587  141.3820  170.4292 O.3     1  UNL1       -0.3374
     11 C         141.5471  140.9114  171.2143 C.3     1  UNL1        0.2591
     12 C         142.6284  140.1223  170.5375 C.2     1  UNL1        0.3194
     13 N         143.8168  139.6518  171.3224 N.pl3   1  UNL1       -0.2480
     14 N         142.5213  139.8038  169.0756 N.2     1  UNL1       -0.0693
     15 H         143.8871  139.8608  172.2819 H       1  UNL1        0.2882
     16 H         144.5265  139.1339  170.8782 H       1  UNL1        0.2882
     17 C         139.7105  143.9894  161.6673 C.ar    1  UNL1        0.1387
     18 C         140.5855  145.1410  162.0651 C.ar    1  UNL1        0.0369
     19 C         141.1853  145.1876  163.4392 C.ar    1  UNL1        0.0031
     20 C         140.9100  144.0827  164.4155 C.ar    1  UNL1        0.0002
     21 C         140.0349  142.9311  164.0178 C.ar    1  UNL1        0.0030
     22 C         139.4352  142.8845  162.6437 C.ar    1  UNL1        0.0369
     23 C         138.7984  142.6215  159.6557 C.3     1  UNL1        0.2525
     24 O         139.1108  143.9428  160.2932 O.3     1  UNL1       -0.4714
@<TRIPOS>BOND
     1    23    24    1
     2    24    17    1
     3    17    18   ar
     4    18    19   ar
     5    19    20   ar
     6    20    21   ar
     7    21     1    1
     8     1     2   ar
     9     2     3   ar
    10     3     4   ar
    11     4     5   ar
    12     5     7    1
    13     7     8    1
    14     7     9    1
    15     9    10    1
    16    10    11    1
    17    11    12    1
    18    12    13    1
    19    12    14    2
    20     5     6   ar
    21    21    22   ar
    22    22    17   ar
    23     6     1   ar
    24    14     7    1
    25    13    15    1
    26    13    16    1
@<TRIPOS>MOLECULE
*****
 24 26 0 0 0
SMALL
GASTEIGER

@<TRIPOS>ATOM
      1 C         139.6154  140.8813  165.0087 C.ar    1  UNL1       -0.0001
      2 C         139.3057  142.3445  164.8945 C.ar    1  UNL1       -0.0000
      3 C         139.8108  143.3014  165.9334 C.ar    1  UNL1       -0.0002
      4 C         140.6256  142.7950  167.0865 C.ar    1  UNL1       -0.0002
      5 C         140.9353  141.3317  167.2006 C.ar    1  UNL1        0.0241
      6 C         140.4302  140.3749  166.1617 C.ar    1  UNL1       -0.0002
      7 C         141.7501  140.8253  168.3537 C.3     1  UNL1        0.2202
      8 C         142.5160  140.2273  167.2110 C.3     1  UNL1        0.0607
      9 C         140.7012  141.5992  169.0959 C.3     1  UNL1        0.1958
     10 O         140.7332  141.6590  170.5944 O.3     1  UNL1       -0.3374
     11 C         141.8139  140.9449  171.3507 C.3     1  UNL1        0.2591
     12 C         142.8629  140.1710  170.6085 C.2     1  UNL1        0.3194
     13 N         143.9437  139.4569  171.3646 N.pl3   1  UNL1       -0.2480
     14 N         142.8309  140.1112  169.1099 N.2     1  UNL1       -0.0693
     15 H         143.9647  139.4961  172.3481 H       1  UNL1        0.2882
     16 H         144.6321  138.9490  170.8774 H       1  UNL1        0.2882
     17 C         137.9127  139.4874  161.7059 C.ar    1  UNL1        0.1387
     18 C         138.1000  138.0108  161.8920 C.ar    1  UNL1        0.0369
     19 C         138.7923  137.4910  163.1169 C.ar    1  UNL1        0.0031
     20 C         139.2975  138.4478  164.1558 C.ar    1  UNL1        0.0002
     21 C         139.1102  139.9244  163.9697 C.ar    1  UNL1        0.0030
     22 C         138.4179  140.4441  162.7448 C.ar    1  UNL1        0.0369
     23 C         138.0104  140.2982  159.2395 C.3     1  UNL1        0.2525
     24 O         137.2204  140.0071  160.4810 O.3     1  UNL1       -0.4714
@<TRIPOS>BOND
     1    23    24    1
     2    24    17    1
     3    17    18   ar
     4    18    19   ar
     5    19    20   ar
     6    20    21   ar
     7    21     1    1
     8     1     2   ar
     9     2     3   ar
    10     3     4   ar
    11     4     5   ar
    12     5     7    1
    13     7     8    1
    14     7     9    1
    15     9    10    1
    16    10    11    1
    17    11    12    1
    18    12    13    1
    19    12    14    2
    20     5     6   ar
    21    21    22   ar
    22    22    17   ar
    23     6     1   ar
    24    14     7    1
    25    13    15    1
    26    13    16    1
@<TRIPOS>MOLECULE
*****
 24 26 0 0 0
SMALL
GASTEIGER

@<TRIPOS>ATOM
      1 C         140.7749  139.0997  164.8441 C.ar    1  UNL1       -0.0001
      2 C         142.0709  138.3592  164.6953 C.ar    1  UNL1       -0.0000
      3 C         143.0655  138.3549  165.8183 C.ar    1  UNL1       -0.0002
      4 C         142.7640  139.0912  167.0899 C.ar    1  UNL1       -0.0002
      5 C         141.4680  139.8317  167.2386 C.ar    1  UNL1        0.0241
      6 C         140.4735  139.8360  166.1157 C.ar    1  UNL1       -0.0002
      7 C         141.1666  140.5680  168.5102 C.3     1  UNL1        0.2202
      8 C         139.8371  139.9188  168.2637 C.3     1  UNL1        0.0607
      9 C         142.6008  140.9615  168.3151 C.3     1  UNL1        0.1958
     10 O         143.2719  141.8659  169.3060 O.3     1  UNL1       -0.3374
     11 C         142.5088  142.3767  170.4920 C.3     1  UNL1        0.2591
     12 C         141.0745  141.9832  170.6871 C.2     1  UNL1        0.3194
     13 N         140.3113  142.4939  171.8731 N.pl3   1  UNL1       -0.2480
     14 N         140.4035  141.0788  169.6962 N.2     1  UNL1       -0.0693
     15 H         140.7517  143.0875  172.5235 H       1  UNL1        0.2882
     16 H         139.3700  142.2356  172.0011 H       1  UNL1        0.2882
     17 C         138.0180  140.3572  162.2813 C.ar    1  UNL1        0.1387
     18 C         137.7913  139.1126  161.4755 C.ar    1  UNL1        0.0369
     19 C         138.5591  137.8636  161.7925 C.ar    1  UNL1        0.0031
     20 C         139.5536  137.8593  162.9154 C.ar    1  UNL1        0.0002
     21 C         139.7804  139.1039  163.7212 C.ar    1  UNL1        0.0030
     22 C         139.0125  140.3529  163.4042 C.ar    1  UNL1        0.0369
     23 C         137.8980  142.9483  162.1340 C.3     1  UNL1        0.2525
     24 O         137.2501  141.6062  161.9643 O.3     1  UNL1       -0.4714
@<TRIPOS>BOND
     1    23    24    1
     2    24    17    1
     3    17    18   ar
     4    18    19   ar
     5    19    20   ar
     6    20    21   ar
     7    21     1    1
     8     1     2   ar
     9     2     3   ar
    10     3     4   ar
    11     4     5   ar
    12     5     7    1
    13     7     8    1
    14     7     9    1
    15     9    10    1
    16    10    11    1
    17    11    12    1
    18    12    13    1
    19    12    14    2
    20     5     6   ar
    21    21    22   ar
    22    22    17   ar
    23     6     1   ar
    24    14     7    1
    25    13    15    1
    26    13    16    1
@<TRIPOS>MOLECULE
*****
 24 26 0 0 0
SMALL
GASTEIGER

@<TRIPOS>ATOM
      1 C         138.7883  140.8113  165.1832 C.ar    1  UNL1       -0.0001
      2 C         138.0947  139.5497  165.6040 C.ar    1  UNL1       -0.0000
      3 C         138.3170  138.9946  166.9797 C.ar    1  UNL1       -0.0002
      4 C         139.2330  139.7012  167.9346 C.ar    1  UNL1       -0.0002
      5 C         139.9266  140.9629  167.5136 C.ar    1  UNL1        0.0241
      6 C         139.7043  141.5179  166.1380 C.ar    1  UNL1       -0.0002
      7 C         140.8426  141.6696  168.4684 C.3     1  UNL1        0.2202
      8 C         141.4319  142.1161  167.1634 C.3     1  UNL1        0.0607
      9 C         139.9351  140.9776  169.4419 C.3     1  UNL1        0.1958
     10 O         140.1483  141.1473  170.9170 O.3     1  UNL1       -0.3374
     11 C         141.2689  142.0090  171.4185 C.3     1  UNL1        0.2591
     12 C         142.1764  142.7010  170.4451 C.2     1  UNL1        0.3194
     13 N         143.2971  143.5627  170.9466 N.pl3   1  UNL1       -0.2480
     14 N         141.9632  142.5312  168.9700 N.2     1  UNL1       -0.0693
     15 H         143.4370  143.6742  171.9147 H       1  UNL1        0.2882
     16 H         143.8927  144.0169  170.3076 H       1  UNL1        0.2882
     17 C         138.5056  141.0370  161.2310 C.ar    1  UNL1        0.1387
     18 C         138.1213  142.4763  161.0561 C.ar    1  UNL1        0.0369
     19 C         137.9593  143.3606  162.2568 C.ar    1  UNL1        0.0031
     20 C         138.1816  142.8056  163.6325 C.ar    1  UNL1        0.0002
     21 C         138.5659  141.3663  163.8074 C.ar    1  UNL1        0.0030
     22 C         138.7279  140.4820  162.6067 C.ar    1  UNL1        0.0369
     23 C         138.0189  140.5265  158.7306 C.3     1  UNL1        0.2525
     24 O         138.6676  140.1527  160.0303 O.3     1  UNL1       -0.4714
@<TRIPOS>BOND
     1    23    24    1
     2    24    17    1
     3    17    18   ar
     4    18    19   ar
     5    19    20   ar
     6    20    21   ar
     7    21     1    1
     8     1     2   ar
     9     2     3   ar
    10     3     4   ar
    11     4     5   ar
    12     5     7    1
    13     7     8    1
    14     7     9    1
    15     9    10    1
    16    10    11    1
    17    11    12    1
    18    12    13    1
    19    12    14    2
    20     5     6   ar
    21    21    22   ar
    22    22    17   ar
    23     6     1   ar
    24    14     7    1
    25    13    15    1
    26    13    16    1
@<TRIPOS>MOLECULE
*****
 24 26 0 0 0
SMALL
GASTEIGER

@<TRIPOS>ATOM
      1 C         139.6209  138.9909  165.4843 C.ar    1  UNL1       -0.0001
      2 C         138.3078  138.4677  165.9863 C.ar    1  UNL1       -0.0000
      3 C         137.8344  138.8272  167.3636 C.ar    1  UNL1       -0.0002
      4 C         138.6741  139.7099  168.2387 C.ar    1  UNL1       -0.0002
      5 C         139.9872  140.2331  167.7365 C.ar    1  UNL1        0.0241
      6 C         140.4606  139.8736  166.3593 C.ar    1  UNL1       -0.0002
      7 C         140.8269  141.1158  168.6116 C.3     1  UNL1        0.2202
      8 C         141.2880  141.5745  167.2599 C.3     1  UNL1        0.0607
      9 C         140.0741  140.3505  169.6593 C.3     1  UNL1        0.1958
     10 O         140.3212  140.6273  171.1127 O.3     1  UNL1       -0.3374
     11 C         141.3210  141.6693  171.5184 C.3     1  UNL1        0.2591
     12 C         142.0738  142.4345  170.4707 C.2     1  UNL1        0.3194
     13 N         143.0736  143.4766  170.8762 N.pl3   1  UNL1       -0.2480
     14 N         141.8267  142.1578  169.0172 N.2     1  UNL1       -0.0693
     15 H         143.2358  143.6582  171.8301 H       1  UNL1        0.2882
     16 H         143.5677  143.9788  170.1885 H       1  UNL1        0.2882
     17 C         142.0368  138.1681  162.4451 C.ar    1  UNL1        0.1387
     18 C         141.0412  137.9124  161.3528 C.ar    1  UNL1        0.0369
     19 C         139.5722  138.0161  161.6375 C.ar    1  UNL1        0.0031
     20 C         139.0987  138.3756  163.0147 C.ar    1  UNL1        0.0002
     21 C         140.0943  138.6313  164.1070 C.ar    1  UNL1        0.0030
     22 C         141.5634  138.5276  163.8223 C.ar    1  UNL1        0.0369
     23 C         144.0588  138.5923  160.8698 C.3     1  UNL1        0.2525
     24 O         143.5059  138.0644  162.1603 O.3     1  UNL1       -0.4714
@<TRIPOS>BOND
     1    23    24    1
     2    24    17    1
     3    17    18   ar
     4    18    19   ar
     5    19    20   ar
     6    20    21   ar
     7    21     1    1
     8     1     2   ar
     9     2     3   ar
    10     3     4   ar
    11     4     5   ar
    12     5     7    1
    13     7     8    1
    14     7     9    1
    15     9    10    1
    16    10    11    1
    17    11    12    1
    18    12    13    1
    19    12    14    2
    20     5     6   ar
    21    21    22   ar
    22    22    17   ar
    23     6     1   ar
    24    14     7    1
    25    13    15    1
    26    13    16    1
@<TRIPOS>MOLECULE
*****
 24 26 0 0 0
SMALL
GASTEIGER

@<TRIPOS>ATOM
      1 C         142.1104  142.3792  165.8768 C.ar    1  UNL1       -0.0001
      2 C         143.4914  142.6660  166.3873 C.ar    1  UNL1       -0.0000
      3 C         144.4469  143.4689  165.5551 C.ar    1  UNL1       -0.0002
      4 C         144.0213  143.9849  164.2124 C.ar    1  UNL1       -0.0002
      5 C         142.6403  143.6980  163.7020 C.ar    1  UNL1        0.0241
      6 C         141.6849  142.8952  164.5342 C.ar    1  UNL1       -0.0002
      7 C         142.2147  144.2140  162.3594 C.3     1  UNL1        0.2202
      8 C         143.4599  143.4733  161.9711 C.3     1  UNL1        0.0607
      9 C         141.1173  144.7755  163.2140 C.3     1  UNL1        0.1958
     10 O         140.0268  145.5958  162.5912 O.3     1  UNL1       -0.3374
     11 C         140.0336  145.8545  161.1137 C.3     1  UNL1        0.2591
     12 C         141.1310  145.2931  160.2591 C.2     1  UNL1        0.3194
     13 N         141.1380  145.5518  158.7816 N.pl3   1  UNL1       -0.2480
     14 N         142.2216  144.4728  160.8819 N.2     1  UNL1       -0.0693
     15 H         140.4223  146.0901  158.3727 H       1  UNL1        0.2882
     16 H         141.8583  145.1832  158.2207 H       1  UNL1        0.2882
     17 C         139.8923  141.1955  168.9475 C.ar    1  UNL1        0.1387
     18 C         139.2441  139.9707  168.3734 C.ar    1  UNL1        0.0369
     19 C         139.5512  139.5487  166.9672 C.ar    1  UNL1        0.0031
     20 C         140.5067  140.3515  166.1350 C.ar    1  UNL1        0.0002
     21 C         141.1549  141.5763  166.7090 C.ar    1  UNL1        0.0030
     22 C         140.8478  141.9983  168.1153 C.ar    1  UNL1        0.0369
     23 C         139.7854  143.0448  170.7692 C.3     1  UNL1        0.2525
     24 O         139.5852  141.6175  170.3538 O.3     1  UNL1       -0.4714
@<TRIPOS>BOND
     1    23    24    1
     2    24    17    1
     3    17    18   ar
     4    18    19   ar
     5    19    20   ar
     6    20    21   ar
     7    21     1    1
     8     1     2   ar
     9     2     3   ar
    10     3     4   ar
    11     4     5   ar
    12     5     7    1
    13     7     8    1
    14     7     9    1
    15     9    10    1
    16    10    11    1
    17    11    12    1
    18    12    13    1
    19    12    14    2
    20     5     6   ar
    21    21    22   ar
    22    22    17   ar
    23     6     1   ar
    24    14     7    1
    25    13    15    1
    26    13    16    1
