@<TRIPOS>MOLECULE
*****
 34 36 0 0 0
SMALL
GASTEIGER

@<TRIPOS>ATOM
      1 C         140.8907  139.9733  166.9539 C.ar    1  UNL1        0.1432
      2 C         140.1936  140.2083  168.2612 C.ar    1  UNL1        0.0384
      3 C         140.7940  141.1367  169.2749 C.ar    1  UNL1        0.0215
      4 C         142.0913  141.8300  168.9815 C.ar    1  UNL1        0.1061
      5 C         142.7883  141.5949  167.6743 C.ar    1  UNL1        0.0259
      6 C         142.1880  140.6666  166.6605 C.ar    1  UNL1        0.0887
      7 C         142.8851  140.4316  165.3532 C.2     1  UNL1        0.2521
      8 O         144.0366  139.4732  165.2790 O.2     1  UNL1       -0.2698
      9 N         142.4306  141.1549  164.1203 N.am    1  UNL1       -0.2725
     10 C         141.2791  142.1133  164.1946 C.3     1  UNL1        0.1151
     11 C         140.8246  142.8367  162.9616 C.3     1  UNL1        0.1124
     12 N         141.5217  142.6017  161.6544 N.pl3   1  UNL1       -0.3023
     13 C         142.6732  141.6433  161.5801 C.3     1  UNL1        0.1124
     14 C         143.1277  140.9200  162.8131 C.3     1  UNL1        0.1151
     15 C         141.0672  143.3250  160.4214 C.ar    1  UNL1        0.0758
     16 C         141.5551  144.7164  160.1455 C.ar    1  UNL1        0.0175
     17 C         141.1006  145.4398  158.9125 C.ar    1  UNL1        0.0117
     18 C         140.1583  144.7718  157.9555 C.ar    1  UNL1        0.0708
     19 C         139.6705  143.3804  158.2314 C.ar    1  UNL1        0.0412
     20 C         140.1250  142.6571  159.4644 C.ar    1  UNL1        0.1540
     21 F         139.6371  141.2656  159.7403 F       1  UNL1       -0.2028
     22 C         139.7038  145.4951  156.7225 C.1     1  UNL1        0.1005
     23 N         139.2493  146.2185  155.4895 N.1     1  UNL1       -0.1908
     24 S         142.6916  142.7583  169.9953 S.O2    1  UNL1        0.0105
     25 C         143.2920  143.6867  171.0091 C.3     1  UNL1        0.1816
     26 O         141.3720  142.8377  170.7041 O.2     1  UNL1       -0.1686
     27 O         144.0112  142.6790  169.2865 O.2     1  UNL1       -0.1686
     28 O         140.2904  139.0449  165.9401 O.3     1  UNL1       -0.4702
     29 C         138.0968  140.0554  164.9824 C.3     1  UNL1        0.0566
     30 C         138.8018  138.9872  165.7647 C.3     1  UNL1        0.2599
     31 C         138.0181  137.8613  166.3716 C.3     1  UNL1        0.4340
     32 F         137.2345  136.7355  166.9785 F       1  UNL1       -0.1664
     33 F         137.2947  138.8384  167.2502 F       1  UNL1       -0.1664
     34 F         138.7416  136.8843  165.4931 F       1  UNL1       -0.1664
@<TRIPOS>BOND
     1    29    30    1
     2    30    28    1
     3    28     1    1
     4     1     2   ar
     5     2     3   ar
     6     3     4   ar
     7     4    24    1
     8    24    25    1
     9    24    26    2
    10    24    27    2
    11     4     5   ar
    12     5     6   ar
    13     6     7    1
    14     7     8    2
    15     7     9   am
    16     9    10    1
    17    10    11    1
    18    11    12    1
    19    12    15    1
    20    15    16   ar
    21    16    17   ar
    22    17    18   ar
    23    18    22    1
    24    22    23    3
    25    18    19   ar
    26    19    20   ar
    27    20    21    1
    28    12    13    1
    29    13    14    1
    30    30    31    1
    31    31    32    1
    32    31    33    1
    33    31    34    1
    34     6     1   ar
    35    14     9    1
    36    20    15   ar
@<TRIPOS>MOLECULE
*****
 34 36 0 0 0
SMALL
GASTEIGER

@<TRIPOS>ATOM
      1 C         138.9979  140.2464  166.2231 C.ar    1  UNL1        0.1432
      2 C         139.3351  139.6021  167.5350 C.ar    1  UNL1        0.0384
      3 C         140.1982  140.3254  168.5259 C.ar    1  UNL1        0.0215
      4 C         140.7243  141.6929  168.2049 C.ar    1  UNL1        0.1061
      5 C         140.3871  142.3372  166.8929 C.ar    1  UNL1        0.0259
      6 C         139.5239  141.6140  165.9021 C.ar    1  UNL1        0.0887
      7 C         139.1868  142.2583  164.5901 C.2     1  UNL1        0.2521
      8 O         137.9243  143.0559  164.4487 O.2     1  UNL1       -0.2698
      9 N         140.1121  142.1050  163.4195 N.am    1  UNL1       -0.2725
     10 C         141.3746  141.3074  163.5609 C.3     1  UNL1        0.1151
     11 C         142.3000  141.1541  162.3903 C.3     1  UNL1        0.1124
     12 N         141.9628  141.7984  161.0784 N.pl3   1  UNL1       -0.3023
     13 C         140.7004  142.5961  160.9370 C.3     1  UNL1        0.1124
     14 C         139.7750  142.7493  162.1076 C.3     1  UNL1        0.1151
     15 C         142.8882  141.6452  159.9078 C.ar    1  UNL1        0.0758
     16 C         143.8729  142.7292  159.5832 C.ar    1  UNL1        0.0175
     17 C         144.7982  142.5759  158.4126 C.ar    1  UNL1        0.0117
     18 C         144.7389  141.3386  157.5667 C.ar    1  UNL1        0.0708
     19 C         143.7542  140.2546  157.8913 C.ar    1  UNL1        0.0412
     20 C         142.8289  140.4079  159.0619 C.ar    1  UNL1        0.1540
     21 F         141.8442  139.3239  159.3865 F       1  UNL1       -0.2028
     22 C         145.6642  141.1853  156.3961 C.1     1  UNL1        0.1005
     23 N         146.5895  141.0320  155.2255 N.1     1  UNL1       -0.1908
     24 S         141.5874  142.4161  169.1957 S.O2    1  UNL1        0.0105
     25 C         142.4506  143.1394  170.1866 C.3     1  UNL1        0.1816
     26 O         142.6326  141.3482  169.0648 O.2     1  UNL1       -0.1686
     27 O         140.5423  143.4841  169.3267 O.2     1  UNL1       -0.1686
     28 O         138.1347  139.5232  165.2322 O.3     1  UNL1       -0.4702
     29 C         138.3909  138.9472  162.7118 C.3     1  UNL1        0.0566
     30 C         138.7654  138.7058  164.1440 C.3     1  UNL1        0.2599
     31 C         139.7707  137.6470  164.4881 C.3     1  UNL1        0.4340
     32 F         140.7759  136.5882  164.8323 F       1  UNL1       -0.1664
     33 F         140.7352  138.2435  163.5064 F       1  UNL1       -0.1664
     34 F         138.8062  137.0504  165.4699 F       1  UNL1       -0.1664
@<TRIPOS>BOND
     1    29    30    1
     2    30    28    1
     3    28     1    1
     4     1     2   ar
     5     2     3   ar
     6     3     4   ar
     7     4    24    1
     8    24    25    1
     9    24    26    2
    10    24    27    2
    11     4     5   ar
    12     5     6   ar
    13     6     7    1
    14     7     8    2
    15     7     9   am
    16     9    10    1
    17    10    11    1
    18    11    12    1
    19    12    15    1
    20    15    16   ar
    21    16    17   ar
    22    17    18   ar
    23    18    22    1
    24    22    23    3
    25    18    19   ar
    26    19    20   ar
    27    20    21    1
    28    12    13    1
    29    13    14    1
    30    30    31    1
    31    31    32    1
    32    31    33    1
    33    31    34    1
    34     6     1   ar
    35    14     9    1
    36    20    15   ar
@<TRIPOS>MOLECULE
*****
 34 36 0 0 0
SMALL
GASTEIGER

@<TRIPOS>ATOM
      1 C         141.2589  139.7735  159.1108 C.ar    1  UNL1        0.1432
      2 C         142.4187  140.0020  158.1875 C.ar    1  UNL1        0.0384
      3 C         142.6400  141.3566  157.5825 C.ar    1  UNL1        0.0215
      4 C         141.7016  142.4827  157.9008 C.ar    1  UNL1        0.1061
      5 C         140.5418  142.2541  158.8241 C.ar    1  UNL1        0.0259
      6 C         140.3204  140.8995  159.4291 C.ar    1  UNL1        0.0887
      7 C         139.1605  140.6709  160.3525 C.2     1  UNL1        0.2521
      8 O         137.8305  140.2555  159.7972 O.2     1  UNL1       -0.2698
      9 N         139.3308  140.8579  161.8310 N.am    1  UNL1       -0.2725
     10 C         140.6609  141.2734  162.3862 C.3     1  UNL1        0.1151
     11 C         140.8311  141.4603  163.8647 C.3     1  UNL1        0.1124
     12 N         139.6713  141.2318  164.7881 N.pl3   1  UNL1       -0.3023
     13 C         138.3412  140.8163  164.2329 C.3     1  UNL1        0.1124
     14 C         138.1710  140.6294  162.7543 C.3     1  UNL1        0.1151
     15 C         139.8415  141.4187  166.2666 C.ar    1  UNL1        0.0758
     16 C         140.2894  142.7439  166.8084 C.ar    1  UNL1        0.0175
     17 C         140.4596  142.9308  168.2869 C.ar    1  UNL1        0.0117
     18 C         140.1820  141.7926  169.2237 C.ar    1  UNL1        0.0708
     19 C         139.7341  140.4676  168.6819 C.ar    1  UNL1        0.0412
     20 C         139.5639  140.2806  167.2034 C.ar    1  UNL1        0.1540
     21 F         139.1160  138.9555  166.6616 F       1  UNL1       -0.2028
     22 C         140.3522  141.9796  170.7022 C.1     1  UNL1        0.1005
     23 N         140.5225  142.1665  172.1807 N.1     1  UNL1       -0.1908
     24 S         141.9230  143.8373  157.2958 S.O2    1  UNL1        0.0105
     25 C         142.1444  145.1919  156.6908 C.3     1  UNL1        0.1816
     26 O         142.7386  144.2371  158.4895 O.2     1  UNL1       -0.1686
     27 O         141.1073  143.4374  156.1021 O.2     1  UNL1       -0.1686
     28 O         141.0375  138.4188  159.7158 O.3     1  UNL1       -0.4702
     29 C         143.2318  138.0452  161.0557 C.3     1  UNL1        0.0566
     30 C         141.7332  138.0441  160.9907 C.3     1  UNL1        0.2599
     31 C         140.9304  137.6681  162.2008 C.3     1  UNL1        0.4340
     32 F         140.1276  137.2922  163.4108 F       1  UNL1       -0.1664
     33 F         139.6836  137.6472  161.3672 F       1  UNL1       -0.1664
     34 F         142.1772  137.6890  163.0345 F       1  UNL1       -0.1664
@<TRIPOS>BOND
     1    29    30    1
     2    30    28    1
     3    28     1    1
     4     1     2   ar
     5     2     3   ar
     6     3     4   ar
     7     4    24    1
     8    24    25    1
     9    24    26    2
    10    24    27    2
    11     4     5   ar
    12     5     6   ar
    13     6     7    1
    14     7     8    2
    15     7     9   am
    16     9    10    1
    17    10    11    1
    18    11    12    1
    19    12    15    1
    20    15    16   ar
    21    16    17   ar
    22    17    18   ar
    23    18    22    1
    24    22    23    3
    25    18    19   ar
    26    19    20   ar
    27    20    21    1
    28    12    13    1
    29    13    14    1
    30    30    31    1
    31    31    32    1
    32    31    33    1
    33    31    34    1
    34     6     1   ar
    35    14     9    1
    36    20    15   ar
@<TRIPOS>MOLECULE
*****
 34 36 0 0 0
SMALL
GASTEIGER

@<TRIPOS>ATOM
      1 C         140.0411  141.6932  158.6164 C.ar    1  UNL1        0.1432
      2 C         141.1532  141.8062  157.6163 C.ar    1  UNL1        0.0384
      3 C         141.9018  140.5799  157.1853 C.ar    1  UNL1        0.0215
      4 C         141.5382  139.2405  157.7545 C.ar    1  UNL1        0.1061
      5 C         140.4260  139.1276  158.7546 C.ar    1  UNL1        0.0259
      6 C         139.6775  140.3539  159.1856 C.ar    1  UNL1        0.0887
      7 C         138.5652  140.2409  160.1857 C.2     1  UNL1        0.2521
      8 O         137.1762  139.9073  159.7283 O.2     1  UNL1       -0.2698
      9 N         138.8421  140.4615  161.6434 N.am    1  UNL1       -0.2725
     10 C         140.2312  140.7951  162.1008 C.3     1  UNL1        0.1151
     11 C         140.5081  141.0157  163.5585 C.3     1  UNL1        0.1124
     12 N         139.3959  140.9026  164.5586 N.pl3   1  UNL1       -0.3023
     13 C         138.0069  140.5690  164.1012 C.3     1  UNL1        0.1124
     14 C         137.7300  140.3485  162.6435 C.3     1  UNL1        0.1151
     15 C         139.6728  141.1232  166.0163 C.ar    1  UNL1        0.0758
     16 C         140.2374  142.4323  166.4827 C.ar    1  UNL1        0.0175
     17 C         140.5143  142.6529  167.9403 C.ar    1  UNL1        0.0117
     18 C         140.2265  141.5644  168.9315 C.ar    1  UNL1        0.0708
     19 C         139.6619  140.2554  168.4651 C.ar    1  UNL1        0.0412
     20 C         139.3850  140.0348  167.0074 C.ar    1  UNL1        0.1540
     21 F         138.8203  138.7257  166.5410 F       1  UNL1       -0.2028
     22 C         140.5034  141.7850  170.3891 C.1     1  UNL1        0.1005
     23 N         140.7803  142.0055  171.8468 N.1     1  UNL1       -0.1908
     24 S         142.2867  138.0142  157.3235 S.O2    1  UNL1        0.0105
     25 C         143.0353  136.7879  156.8925 C.3     1  UNL1        0.1816
     26 O         143.5858  138.7379  157.5206 O.2     1  UNL1       -0.1686
     27 O         140.9877  137.2905  157.1264 O.2     1  UNL1       -0.1686
     28 O         139.2925  142.9196  159.0474 O.3     1  UNL1       -0.4702
     29 C         140.4830  145.1844  158.5967 C.3     1  UNL1        0.0566
     30 C         140.0418  144.1165  159.5532 C.3     1  UNL1        0.2599
     31 C         140.3498  144.2456  161.0156 C.3     1  UNL1        0.4340
     32 F         140.6577  144.3747  162.4779 F       1  UNL1       -0.1664
     33 F         141.7238  144.7464  160.6820 F       1  UNL1       -0.1664
     34 F         138.9758  143.7449  161.3492 F       1  UNL1       -0.1664
@<TRIPOS>BOND
     1    29    30    1
     2    30    28    1
     3    28     1    1
     4     1     2   ar
     5     2     3   ar
     6     3     4   ar
     7     4    24    1
     8    24    25    1
     9    24    26    2
    10    24    27    2
    11     4     5   ar
    12     5     6   ar
    13     6     7    1
    14     7     8    2
    15     7     9   am
    16     9    10    1
    17    10    11    1
    18    11    12    1
    19    12    15    1
    20    15    16   ar
    21    16    17   ar
    22    17    18   ar
    23    18    22    1
    24    22    23    3
    25    18    19   ar
    26    19    20   ar
    27    20    21    1
    28    12    13    1
    29    13    14    1
    30    30    31    1
    31    31    32    1
    32    31    33    1
    33    31    34    1
    34     6     1   ar
    35    14     9    1
    36    20    15   ar
@<TRIPOS>MOLECULE
*****
 34 36 0 0 0
SMALL
GASTEIGER

@<TRIPOS>ATOM
      1 C         140.1399  141.6526  158.6559 C.ar    1  UNL1        0.1432
      2 C         141.2603  141.7447  157.6629 C.ar    1  UNL1        0.0384
      3 C         141.9769  140.5024  157.2233 C.ar    1  UNL1        0.0215
      4 C         141.5731  139.1680  157.7768 C.ar    1  UNL1        0.1061
      5 C         140.4527  139.0759  158.7698 C.ar    1  UNL1        0.0259
      6 C         139.7360  140.3182  159.2093 C.ar    1  UNL1        0.0887
      7 C         138.6155  140.2261  160.2024 C.2     1  UNL1        0.2521
      8 O         137.2258  139.9063  159.7375 O.2     1  UNL1       -0.2698
      9 N         138.8849  140.4537  161.6603 N.am    1  UNL1       -0.2725
     10 C         140.2748  140.7734  162.1252 C.3     1  UNL1        0.1151
     11 C         140.5442  141.0010  163.5832 C.3     1  UNL1        0.1124
     12 N         139.4237  140.9089  164.5762 N.pl3   1  UNL1       -0.3023
     13 C         138.0339  140.5892  164.1113 C.3     1  UNL1        0.1124
     14 C         137.7645  140.3615  162.6534 C.3     1  UNL1        0.1151
     15 C         139.6931  141.1365  166.0342 C.ar    1  UNL1        0.0758
     16 C         139.4729  140.0272  167.0197 C.ar    1  UNL1        0.0175
     17 C         139.7423  140.2549  168.4776 C.ar    1  UNL1        0.0117
     18 C         140.2319  141.5917  168.9501 C.ar    1  UNL1        0.0708
     19 C         140.4521  142.7009  167.9646 C.ar    1  UNL1        0.0412
     20 C         140.1827  142.4733  166.5067 C.ar    1  UNL1        0.1540
     21 F         140.4029  143.5825  165.5212 F       1  UNL1       -0.2028
     22 C         140.5013  141.8193  170.4080 C.1     1  UNL1        0.1005
     23 N         140.7707  142.0469  171.8660 N.1     1  UNL1       -0.1908
     24 S         142.2897  137.9258  157.3372 S.O2    1  UNL1        0.0105
     25 C         143.0063  136.6835  156.8977 C.3     1  UNL1        0.1816
     26 O         140.9722  137.2404  157.1263 O.2     1  UNL1       -0.1686
     27 O         143.6072  138.6111  157.5482 O.2     1  UNL1       -0.1686
     28 O         139.4232  142.8949  159.0955 O.3     1  UNL1       -0.4702
     29 C         140.3247  145.2924  158.6607 C.3     1  UNL1        0.0566
     30 C         140.2058  144.0908  159.5507 C.3     1  UNL1        0.2599
     31 C         140.8695  144.0852  160.8959 C.3     1  UNL1        0.4340
     32 F         141.5332  144.0796  162.2410 F       1  UNL1       -0.1664
     33 F         139.5250  144.0360  161.5591 F       1  UNL1       -0.1664
     34 F         142.2140  144.1343  160.2327 F       1  UNL1       -0.1664
@<TRIPOS>BOND
     1    29    30    1
     2    30    28    1
     3    28     1    1
     4     1     2   ar
     5     2     3   ar
     6     3     4   ar
     7     4    24    1
     8    24    25    1
     9    24    26    2
    10    24    27    2
    11     4     5   ar
    12     5     6   ar
    13     6     7    1
    14     7     8    2
    15     7     9   am
    16     9    10    1
    17    10    11    1
    18    11    12    1
    19    12    15    1
    20    15    16   ar
    21    16    17   ar
    22    17    18   ar
    23    18    22    1
    24    22    23    3
    25    18    19   ar
    26    19    20   ar
    27    20    21    1
    28    12    13    1
    29    13    14    1
    30    30    31    1
    31    31    32    1
    32    31    33    1
    33    31    34    1
    34     6     1   ar
    35    14     9    1
    36    20    15   ar
@<TRIPOS>MOLECULE
*****
 34 36 0 0 0
SMALL
GASTEIGER

@<TRIPOS>ATOM
      1 C         141.2273  142.8132  165.8288 C.ar    1  UNL1        0.1432
      2 C         140.3817  142.6806  167.0605 C.ar    1  UNL1        0.0384
      3 C         140.7331  141.6637  168.1057 C.ar    1  UNL1        0.0215
      4 C         141.9301  140.7793  167.9191 C.ar    1  UNL1        0.1061
      5 C         142.7758  140.9119  166.6873 C.ar    1  UNL1        0.0259
      6 C         142.4243  141.9288  165.6422 C.ar    1  UNL1        0.0887
      7 C         143.2701  142.0613  164.4103 C.2     1  UNL1        0.2521
      8 O         144.4684  142.9634  164.4168 O.2     1  UNL1       -0.2698
      9 N         142.9173  141.2917  163.1721 N.am    1  UNL1       -0.2725
     10 C         141.7189  140.3895  163.1657 C.3     1  UNL1        0.1151
     11 C         141.3662  139.6199  161.9274 C.3     1  UNL1        0.1124
     12 N         142.2119  139.7524  160.6956 N.pl3   1  UNL1       -0.3023
     13 C         143.4103  140.6545  160.7021 C.3     1  UNL1        0.1124
     14 C         143.7630  141.4241  161.9403 C.3     1  UNL1        0.1151
     15 C         141.8592  138.9827  159.4574 C.ar    1  UNL1        0.0758
     16 C         142.8387  138.0062  158.8768 C.ar    1  UNL1        0.0175
     17 C         142.4860  137.2365  157.6386 C.ar    1  UNL1        0.0117
     18 C         141.1537  137.4435  156.9809 C.ar    1  UNL1        0.0708
     19 C         140.1743  138.4200  157.5614 C.ar    1  UNL1        0.0412
     20 C         140.5271  139.1896  158.7997 C.ar    1  UNL1        0.1540
     21 F         139.5476  140.1662  159.3803 F       1  UNL1       -0.2028
     22 C         140.8010  136.6738  155.7426 C.1     1  UNL1        0.1005
     23 N         140.4483  135.9042  154.5044 N.1     1  UNL1       -0.1908
     24 S         142.2816  139.7624  168.9643 S.O2    1  UNL1        0.0105
     25 C         142.6330  138.7455  170.0094 C.3     1  UNL1        0.1816
     26 O         141.4523  140.5074  169.9679 O.2     1  UNL1       -0.1686
     27 O         143.1108  139.0174  167.9606 O.2     1  UNL1       -0.1686
     28 O         140.8759  143.8301  164.7836 O.3     1  UNL1       -0.4702
     29 C         139.5253  143.1977  162.6562 C.3     1  UNL1        0.0566
     30 C         139.5678  143.7361  164.0556 C.3     1  UNL1        0.2599
     31 C         138.3021  144.1805  164.7269 C.3     1  UNL1        0.4340
     32 F         137.0366  144.6250  165.3983 F       1  UNL1       -0.1664
     33 F         137.5749  143.0127  164.1292 F       1  UNL1       -0.1664
     34 F         139.0294  145.3483  165.3247 F       1  UNL1       -0.1664
@<TRIPOS>BOND
     1    29    30    1
     2    30    28    1
     3    28     1    1
     4     1     2   ar
     5     2     3   ar
     6     3     4   ar
     7     4    24    1
     8    24    25    1
     9    24    26    2
    10    24    27    2
    11     4     5   ar
    12     5     6   ar
    13     6     7    1
    14     7     8    2
    15     7     9   am
    16     9    10    1
    17    10    11    1
    18    11    12    1
    19    12    15    1
    20    15    16   ar
    21    16    17   ar
    22    17    18   ar
    23    18    22    1
    24    22    23    3
    25    18    19   ar
    26    19    20   ar
    27    20    21    1
    28    12    13    1
    29    13    14    1
    30    30    31    1
    31    31    32    1
    32    31    33    1
    33    31    34    1
    34     6     1   ar
    35    14     9    1
    36    20    15   ar
@<TRIPOS>MOLECULE
*****
 34 36 0 0 0
SMALL
GASTEIGER

@<TRIPOS>ATOM
      1 C         141.6862  142.5030  165.6290 C.ar    1  UNL1        0.1432
      2 C         142.1187  141.2266  166.2875 C.ar    1  UNL1        0.0384
      3 C         141.1125  140.1514  166.5728 C.ar    1  UNL1        0.0215
      4 C         139.6736  140.3526  166.1996 C.ar    1  UNL1        0.1061
      5 C         139.2411  141.6290  165.5411 C.ar    1  UNL1        0.0259
      6 C         140.2474  142.7042  165.2559 C.ar    1  UNL1        0.0887
      7 C         139.8147  143.9807  164.5974 C.2     1  UNL1        0.2521
      8 O         139.2010  145.0769  165.4169 O.2     1  UNL1       -0.2698
      9 N         139.9959  144.1609  163.1193 N.am    1  UNL1       -0.2725
     10 C         140.6096  143.0647  162.2997 C.3     1  UNL1        0.1151
     11 C         140.7907  143.2449  160.8216 C.3     1  UNL1        0.1124
     12 N         140.3581  144.5213  160.1631 N.pl3   1  UNL1       -0.3023
     13 C         139.7444  145.6175  160.9827 C.3     1  UNL1        0.1124
     14 C         139.5633  145.4373  162.4608 C.3     1  UNL1        0.1151
     15 C         140.5392  144.7016  158.6850 C.ar    1  UNL1        0.0758
     16 C         141.6013  145.6254  158.1667 C.ar    1  UNL1        0.0175
     17 C         141.7824  145.8056  156.6886 C.ar    1  UNL1        0.0117
     18 C         140.9014  145.0620  155.7289 C.ar    1  UNL1        0.0708
     19 C         139.8395  144.1382  156.2472 C.ar    1  UNL1        0.0412
     20 C         139.6583  143.9580  157.7253 C.ar    1  UNL1        0.1540
     21 F         138.5963  143.0342  158.2437 F       1  UNL1       -0.2028
     22 C         141.0826  145.2422  154.2508 C.1     1  UNL1        0.1005
     23 N         141.2637  145.4225  152.7727 N.1     1  UNL1       -0.1908
     24 S         138.6674  139.2774  166.4849 S.O2    1  UNL1        0.0105
     25 C         137.6611  138.2022  166.7702 C.3     1  UNL1        0.1816
     26 O         138.9346  139.4172  167.9543 O.2     1  UNL1       -0.1686
     27 O         138.4002  139.1376  165.0155 O.2     1  UNL1       -0.1686
     28 O         142.6924  143.5782  165.3437 O.3     1  UNL1       -0.4702
     29 C         143.6439  144.4999  163.1088 C.3     1  UNL1        0.0566
     30 C         143.6220  143.4442  164.1742 C.3     1  UNL1        0.2599
     31 C         144.5297  142.2545  164.0700 C.3     1  UNL1        0.4340
     32 F         145.4373  141.0649  163.9658 F       1  UNL1       -0.1664
     33 F         145.4120  142.8344  165.1355 F       1  UNL1       -0.1664
     34 F         143.6474  141.6747  163.0046 F       1  UNL1       -0.1664
@<TRIPOS>BOND
     1    29    30    1
     2    30    28    1
     3    28     1    1
     4     1     2   ar
     5     2     3   ar
     6     3     4   ar
     7     4    24    1
     8    24    25    1
     9    24    26    2
    10    24    27    2
    11     4     5   ar
    12     5     6   ar
    13     6     7    1
    14     7     8    2
    15     7     9   am
    16     9    10    1
    17    10    11    1
    18    11    12    1
    19    12    15    1
    20    15    16   ar
    21    16    17   ar
    22    17    18   ar
    23    18    22    1
    24    22    23    3
    25    18    19   ar
    26    19    20   ar
    27    20    21    1
    28    12    13    1
    29    13    14    1
    30    30    31    1
    31    31    32    1
    32    31    33    1
    33    31    34    1
    34     6     1   ar
    35    14     9    1
    36    20    15   ar
@<TRIPOS>MOLECULE
*****
 34 36 0 0 0
SMALL
GASTEIGER

@<TRIPOS>ATOM
      1 C         142.2761  138.9058  165.8520 C.ar    1  UNL1        0.1432
      2 C         143.0162  139.2058  167.1217 C.ar    1  UNL1        0.0384
      3 C         142.3244  139.9265  168.2407 C.ar    1  UNL1        0.0215
      4 C         140.8926  140.3472  168.0900 C.ar    1  UNL1        0.1061
      5 C         140.1525  140.0471  166.8203 C.ar    1  UNL1        0.0259
      6 C         140.8442  139.3265  165.7013 C.ar    1  UNL1        0.0887
      7 C         140.1040  139.0264  164.4316 C.2     1  UNL1        0.2521
      8 O         139.3635  137.7305  164.2835 O.2     1  UNL1       -0.2698
      9 N         140.1045  140.0224  163.3100 N.am    1  UNL1       -0.2725
     10 C         140.8451  141.3185  163.4581 C.3     1  UNL1        0.1151
     11 C         140.8455  142.3145  162.3365 C.3     1  UNL1        0.1124
     12 N         140.1053  142.0144  161.0668 N.pl3   1  UNL1       -0.3023
     13 C         139.3648  140.7185  160.9187 C.3     1  UNL1        0.1124
     14 C         139.3643  139.7225  162.0403 C.3     1  UNL1        0.1151
     15 C         140.1057  143.0104  159.9452 C.ar    1  UNL1        0.0758
     16 C         139.8646  142.5540  158.5368 C.ar    1  UNL1        0.0175
     17 C         139.8650  143.5500  157.4152 C.ar    1  UNL1        0.0117
     18 C         140.1066  145.0024  157.7020 C.ar    1  UNL1        0.0708
     19 C         140.3477  145.4588  159.1104 C.ar    1  UNL1        0.0412
     20 C         140.3473  144.4628  160.2320 C.ar    1  UNL1        0.1540
     21 F         140.5885  144.9192  161.6404 F       1  UNL1       -0.2028
     22 C         140.1070  145.9985  156.5804 C.1     1  UNL1        0.1005
     23 N         140.1074  146.9945  155.4588 N.1     1  UNL1       -0.1908
     24 S         140.2008  141.0679  169.2090 S.O2    1  UNL1        0.0105
     25 C         139.5091  141.7885  170.3279 C.3     1  UNL1        0.1816
     26 O         140.7941  142.3637  168.7411 O.2     1  UNL1       -0.1686
     27 O         139.6076  139.7720  169.6768 O.2     1  UNL1       -0.1686
     28 O         142.9678  138.1851  164.7331 O.3     1  UNL1       -0.4702
     29 C         143.3101  138.7680  162.2245 C.3     1  UNL1        0.0566
     30 C         143.6781  138.9634  163.6655 C.3     1  UNL1        0.2599
     31 C         144.7563  139.9371  164.0389 C.3     1  UNL1        0.4340
     32 F         145.8345  140.9108  164.4122 F       1  UNL1       -0.1664
     33 F         144.0813  140.9981  163.2212 F       1  UNL1       -0.1664
     34 F         145.4313  138.8761  164.8565 F       1  UNL1       -0.1664
@<TRIPOS>BOND
     1    29    30    1
     2    30    28    1
     3    28     1    1
     4     1     2   ar
     5     2     3   ar
     6     3     4   ar
     7     4    24    1
     8    24    25    1
     9    24    26    2
    10    24    27    2
    11     4     5   ar
    12     5     6   ar
    13     6     7    1
    14     7     8    2
    15     7     9   am
    16     9    10    1
    17    10    11    1
    18    11    12    1
    19    12    15    1
    20    15    16   ar
    21    16    17   ar
    22    17    18   ar
    23    18    22    1
    24    22    23    3
    25    18    19   ar
    26    19    20   ar
    27    20    21    1
    28    12    13    1
    29    13    14    1
    30    30    31    1
    31    31    32    1
    32    31    33    1
    33    31    34    1
    34     6     1   ar
    35    14     9    1
    36    20    15   ar
@<TRIPOS>MOLECULE
*****
 34 36 0 0 0
SMALL
GASTEIGER

@<TRIPOS>ATOM
      1 C         141.0542  139.4995  158.8727 C.ar    1  UNL1        0.1432
      2 C         140.9957  140.4499  157.7137 C.ar    1  UNL1        0.0384
      3 C         142.2366  141.1637  157.2657 C.ar    1  UNL1        0.0215
      4 C         143.5360  140.9271  157.9766 C.ar    1  UNL1        0.1061
      5 C         143.5945  139.9767  159.1356 C.ar    1  UNL1        0.0259
      6 C         142.3536  139.2629  159.5837 C.ar    1  UNL1        0.0887
      7 C         142.4121  138.3125  160.7427 C.2     1  UNL1        0.2521
      8 O         142.7253  136.8642  160.5099 O.2     1  UNL1       -0.2698
      9 N         142.1575  138.8105  162.1345 N.am    1  UNL1       -0.2725
     10 C         141.8443  140.2589  162.3673 C.3     1  UNL1        0.1151
     11 C         141.5897  140.7569  163.7591 C.3     1  UNL1        0.1124
     12 N         141.6482  139.8065  164.9182 N.pl3   1  UNL1       -0.3023
     13 C         141.9614  138.3582  164.6854 C.3     1  UNL1        0.1124
     14 C         142.2161  137.8602  163.2936 C.3     1  UNL1        0.1151
     15 C         141.3936  140.3045  166.3100 C.ar    1  UNL1        0.0758
     16 C         140.1637  139.8679  167.0495 C.ar    1  UNL1        0.0175
     17 C         139.9090  140.3659  168.4413 C.ar    1  UNL1        0.0117
     18 C         140.8843  141.3005  169.0936 C.ar    1  UNL1        0.0708
     19 C         142.1141  141.7370  168.3541 C.ar    1  UNL1        0.0412
     20 C         142.3688  141.2390  166.9623 C.ar    1  UNL1        0.1540
     21 F         143.5987  141.6756  166.2228 F       1  UNL1       -0.2028
     22 C         140.6296  141.7985  170.4855 C.1     1  UNL1        0.1005
     23 N         140.3750  142.2965  171.8773 N.1     1  UNL1       -0.1908
     24 S         144.7769  141.6409  157.5286 S.O2    1  UNL1        0.0105
     25 C         146.0177  142.3546  157.0806 C.3     1  UNL1        0.1816
     26 O         144.2961  142.8954  158.1957 O.2     1  UNL1       -0.1686
     27 O         145.2576  140.3863  156.8616 O.2     1  UNL1       -0.1686
     28 O         139.8133  138.7857  159.3207 O.3     1  UNL1       -0.4702
     29 C         138.1444  140.7139  159.8178 C.3     1  UNL1        0.0566
     30 C         138.8523  139.4644  160.2512 C.3     1  UNL1        0.2599
     31 C         138.5990  138.8935  161.6150 C.3     1  UNL1        0.4340
     32 F         138.3458  138.3227  162.9788 F       1  UNL1       -0.1664
     33 F         139.2647  137.6140  161.2031 F       1  UNL1       -0.1664
     34 F         137.9334  140.1730  162.0269 F       1  UNL1       -0.1664
@<TRIPOS>BOND
     1    29    30    1
     2    30    28    1
     3    28     1    1
     4     1     2   ar
     5     2     3   ar
     6     3     4   ar
     7     4    24    1
     8    24    25    1
     9    24    26    2
    10    24    27    2
    11     4     5   ar
    12     5     6   ar
    13     6     7    1
    14     7     8    2
    15     7     9   am
    16     9    10    1
    17    10    11    1
    18    11    12    1
    19    12    15    1
    20    15    16   ar
    21    16    17   ar
    22    17    18   ar
    23    18    22    1
    24    22    23    3
    25    18    19   ar
    26    19    20   ar
    27    20    21    1
    28    12    13    1
    29    13    14    1
    30    30    31    1
    31    31    32    1
    32    31    33    1
    33    31    34    1
    34     6     1   ar
    35    14     9    1
    36    20    15   ar
