@<TRIPOS>MOLECULE
*****
 34 36 0 0 0
SMALL
GASTEIGER

@<TRIPOS>ATOM
      1 O         137.3901  139.9007  156.3247 O.2     1  UNL1       -0.2701
      2 C         137.0828  141.3318  156.6525 C.2     1  UNL1        0.2462
      3 N         135.8328  141.9706  156.1236 N.am    1  UNL1       -0.2969
      4 H         135.6311  142.9099  156.3388 H       1  UNL1        0.1501
      5 C         138.0253  142.1241  157.5091 C.ar    1  UNL1        0.0557
      6 C         138.2183  141.7561  158.9504 C.ar    1  UNL1        0.0060
      7 C         139.1609  142.5484  159.8070 C.ar    1  UNL1        0.0226
      8 C         139.9104  143.7088  159.2224 C.ar    1  UNL1        0.1525
      9 C         139.7174  144.0768  157.7811 C.ar    1  UNL1        0.1590
     10 F         140.4669  145.2371  157.1964 F       1  UNL1       -0.2027
     11 C         138.7748  143.2844  156.9245 C.ar    1  UNL1        0.0355
     12 S         140.8529  144.5011  160.0790 S.O2    1  UNL1        0.0772
     13 O         139.7282  145.4110  160.4750 O.2     1  UNL1       -0.1498
     14 O         141.9777  143.5912  159.6830 O.2     1  UNL1       -0.1498
     15 N         141.7955  145.2934  160.9356 N.pl3   1  UNL1       -0.1925
     16 H         142.0198  146.2208  160.6930 H       1  UNL1        0.1758
     17 C         142.3963  144.6727  162.1619 C.ar    1  UNL1        0.1977
     18 N         143.8605  144.5706  162.4713 N.ar    1  UNL1       -0.1997
     19 C         144.0076  143.8799  163.7947 C.ar    1  UNL1        0.2082
     20 N         142.6343  143.5552  164.3032 N.ar    1  UNL1       -0.1840
     21 S         141.6385  144.0452  163.2941 S.2     1  UNL1        0.0508
     22 C         134.8903  141.1783  155.2670 C.3     1  UNL1        0.1166
     23 C         133.5586  140.7537  155.8116 C.ar    1  UNL1       -0.0015
     24 C         133.4835  139.6811  156.8575 C.ar    1  UNL1        0.0006
     25 C         132.1519  139.2566  157.4020 C.ar    1  UNL1        0.0378
     26 C         130.8954  139.9046  156.9007 C.ar    1  UNL1        0.1572
     27 C         130.9705  140.9772  155.8548 C.ar    1  UNL1        0.0915
     28 CL        129.7141  141.6252  155.3535 Cl      1  UNL1       -0.0791
     29 C         132.3021  141.4017  155.3103 C.ar    1  UNL1        0.0118
     30 O         129.5638  139.4800  157.4453 O.3     1  UNL1       -0.4036
     31 C         129.4572  138.2418  158.2852 C.3     1  UNL1        0.5753
     32 F         129.3507  137.0035  159.1251 F       1  UNL1       -0.1328
     33 F         129.6387  137.3953  157.0603 F       1  UNL1       -0.1328
     34 F         129.2757  139.0883  159.5101 F       1  UNL1       -0.1328
@<TRIPOS>BOND
     1     1     2    2
     2     2     3   am
     3     3    22    1
     4    22    23    1
     5    23    24   ar
     6    24    25   ar
     7    25    26   ar
     8    26    30    1
     9    30    31    1
    10    31    32    1
    11    31    33    1
    12    31    34    1
    13    26    27   ar
    14    27    28    1
    15    27    29   ar
    16     2     5    1
    17     5     6   ar
    18     6     7   ar
    19     7     8   ar
    20     8    12    1
    21    12    13    2
    22    12    14    2
    23    12    15    1
    24    15    17    1
    25    17    18   ar
    26    18    19   ar
    27    19    20   ar
    28    20    21   ar
    29     8     9   ar
    30     9    10    1
    31     9    11   ar
    32    29    23   ar
    33    11     5   ar
    34    21    17   ar
    35     3     4    1
    36    15    16    1
@<TRIPOS>MOLECULE
*****
 34 36 0 0 0
SMALL
GASTEIGER

@<TRIPOS>ATOM
      1 O         142.3188  141.1330  163.1483 O.2     1  UNL1       -0.2701
      2 C         141.1980  140.9262  162.1731 C.2     1  UNL1        0.2462
      3 N         139.8485  141.5227  162.4439 N.am    1  UNL1       -0.2969
      4 H         139.1129  141.3869  161.8038 H       1  UNL1        0.1501
      5 C         141.4267  140.1231  160.9271 C.ar    1  UNL1        0.0557
      6 C         140.9082  140.6186  159.6096 C.ar    1  UNL1        0.0060
      7 C         141.1369  139.8155  158.3636 C.ar    1  UNL1        0.0226
      8 C         141.8840  138.5167  158.4350 C.ar    1  UNL1        0.1525
      9 C         142.4025  138.0212  159.7524 C.ar    1  UNL1        0.1590
     10 F         143.1497  136.7225  159.8239 F       1  UNL1       -0.2027
     11 C         142.1738  138.8244  160.9985 C.ar    1  UNL1        0.0355
     12 S         142.1127  137.7135  157.1890 S.O2    1  UNL1        0.0772
     13 O         140.6770  137.2794  157.2054 O.2     1  UNL1       -0.1498
     14 O         143.5484  138.1477  157.1726 O.2     1  UNL1       -0.1498
     15 N         142.3414  136.9104  155.9430 N.pl3   1  UNL1       -0.1925
     16 H         142.5700  137.3642  155.0998 H       1  UNL1        0.1758
     17 C         142.2217  135.4156  155.9816 C.ar    1  UNL1        0.1977
     18 N         141.2967  134.5832  155.1440 N.ar    1  UNL1       -0.1997
     19 C         141.5093  133.1440  155.5093 C.ar    1  UNL1        0.2082
     20 N         142.5657  133.0869  156.5728 N.ar    1  UNL1       -0.1840
     21 S         143.0060  134.4908  156.8646 S.2     1  UNL1        0.0508
     22 C         139.6199  142.3258  163.6899 C.3     1  UNL1        0.1166
     23 C         139.5704  141.6424  165.0243 C.ar    1  UNL1       -0.0015
     24 C         140.3665  142.1840  166.1744 C.ar    1  UNL1        0.0006
     25 C         140.3169  141.5006  167.5087 C.ar    1  UNL1        0.0378
     26 C         139.4713  140.2754  167.6929 C.ar    1  UNL1        0.1572
     27 C         138.6753  139.7337  166.5428 C.ar    1  UNL1        0.0915
     28 CL        137.8297  138.5086  166.7270 Cl      1  UNL1       -0.0791
     29 C         138.7248  140.4172  165.2085 C.ar    1  UNL1        0.0118
     30 O         139.4219  139.5919  169.0272 O.3     1  UNL1       -0.4036
     31 C         139.9638  140.2819  170.2438 C.3     1  UNL1        0.5753
     32 F         140.5058  140.9719  171.4605 F       1  UNL1       -0.1328
     33 F         138.7610  141.1776  170.2717 F       1  UNL1       -0.1328
     34 F         141.1667  139.3862  170.2160 F       1  UNL1       -0.1328
@<TRIPOS>BOND
     1     1     2    2
     2     2     3   am
     3     3    22    1
     4    22    23    1
     5    23    24   ar
     6    24    25   ar
     7    25    26   ar
     8    26    30    1
     9    30    31    1
    10    31    32    1
    11    31    33    1
    12    31    34    1
    13    26    27   ar
    14    27    28    1
    15    27    29   ar
    16     2     5    1
    17     5     6   ar
    18     6     7   ar
    19     7     8   ar
    20     8    12    1
    21    12    13    2
    22    12    14    2
    23    12    15    1
    24    15    17    1
    25    17    18   ar
    26    18    19   ar
    27    19    20   ar
    28    20    21   ar
    29     8     9   ar
    30     9    10    1
    31     9    11   ar
    32    29    23   ar
    33    11     5   ar
    34    21    17   ar
    35     3     4    1
    36    15    16    1
@<TRIPOS>MOLECULE
*****
 34 36 0 0 0
SMALL
GASTEIGER

@<TRIPOS>ATOM
      1 O         139.1747  141.8573  163.3112 O.2     1  UNL1       -0.2701
      2 C         139.6568  140.4369  163.3086 C.2     1  UNL1        0.2462
      3 N         139.4335  139.5669  164.5101 N.am    1  UNL1       -0.2969
      4 H         139.7499  138.6346  164.5084 H       1  UNL1        0.1501
      5 C         140.3620  139.8864  162.1047 C.ar    1  UNL1        0.0557
      6 C         139.5779  139.2052  161.0224 C.ar    1  UNL1        0.0060
      7 C         140.2832  138.6548  159.8185 C.ar    1  UNL1        0.0226
      8 C         141.7726  138.7854  159.6967 C.ar    1  UNL1        0.1525
      9 C         142.5566  139.4666  160.7790 C.ar    1  UNL1        0.1590
     10 F         144.0459  139.5972  160.6573 F       1  UNL1       -0.2027
     11 C         141.8513  140.0171  161.9830 C.ar    1  UNL1        0.0355
     12 S         142.4778  138.2349  158.4928 S.O2    1  UNL1        0.0772
     13 O         142.9783  137.0829  159.3127 O.2     1  UNL1       -0.1498
     14 O         141.9773  139.3869  157.6729 O.2     1  UNL1       -0.1498
     15 N         143.1831  137.6844  157.2888 N.pl3   1  UNL1       -0.1925
     16 H         143.9375  138.1772  156.8922 H       1  UNL1        0.1758
     17 C         142.7389  136.3832  156.6891 C.ar    1  UNL1        0.1977
     18 N         143.4647  135.0741  156.7866 N.ar    1  UNL1       -0.1997
     19 C         142.6654  134.0445  156.0444 C.ar    1  UNL1        0.2082
     20 N         141.4454  134.7172  155.4883 N.ar    1  UNL1       -0.1840
     21 S         141.4908  136.1626  155.8868 S.2     1  UNL1        0.0508
     22 C         138.7283  140.1174  165.7140 C.3     1  UNL1        0.1166
     23 C         139.5221  140.6488  166.8705 C.ar    1  UNL1       -0.0015
     24 C         140.3811  141.8658  166.6945 C.ar    1  UNL1        0.0006
     25 C         141.1750  142.3971  167.8509 C.ar    1  UNL1        0.0378
     26 C         141.1098  141.7115  169.1835 C.ar    1  UNL1        0.1572
     27 C         140.2508  140.4945  169.3596 C.ar    1  UNL1        0.0915
     28 CL        140.1856  139.8089  170.6921 Cl      1  UNL1       -0.0791
     29 C         139.4570  139.9632  168.2031 C.ar    1  UNL1        0.0118
     30 O         141.9037  142.2429  170.3400 O.3     1  UNL1       -0.4036
     31 C         143.3754  142.4899  170.1890 C.3     1  UNL1        0.5753
     32 F         144.8473  142.7369  170.0380 F       1  UNL1       -0.1328
     33 F         143.2136  143.8405  170.8210 F       1  UNL1       -0.1328
     34 F         143.5373  141.1392  169.5570 F       1  UNL1       -0.1328
@<TRIPOS>BOND
     1     1     2    2
     2     2     3   am
     3     3    22    1
     4    22    23    1
     5    23    24   ar
     6    24    25   ar
     7    25    26   ar
     8    26    30    1
     9    30    31    1
    10    31    32    1
    11    31    33    1
    12    31    34    1
    13    26    27   ar
    14    27    28    1
    15    27    29   ar
    16     2     5    1
    17     5     6   ar
    18     6     7   ar
    19     7     8   ar
    20     8    12    1
    21    12    13    2
    22    12    14    2
    23    12    15    1
    24    15    17    1
    25    17    18   ar
    26    18    19   ar
    27    19    20   ar
    28    20    21   ar
    29     8     9   ar
    30     9    10    1
    31     9    11   ar
    32    29    23   ar
    33    11     5   ar
    34    21    17   ar
    35     3     4    1
    36    15    16    1
@<TRIPOS>MOLECULE
*****
 34 36 0 0 0
SMALL
GASTEIGER

@<TRIPOS>ATOM
      1 O         145.0290  139.5346  164.0631 O.2     1  UNL1       -0.2701
      2 C         143.7123  138.9773  163.6095 C.2     1  UNL1        0.2462
      3 N         142.7413  138.4339  164.6155 N.am    1  UNL1       -0.2969
      4 H         141.8771  138.0681  164.3179 H       1  UNL1        0.1501
      5 C         143.3665  138.9633  162.1500 C.ar    1  UNL1        0.0557
      6 C         142.3150  138.0245  161.6372 C.ar    1  UNL1        0.0060
      7 C         141.9693  138.0105  160.1777 C.ar    1  UNL1        0.0226
      8 C         142.6750  138.9355  159.2309 C.ar    1  UNL1        0.1525
      9 C         143.7265  139.8743  159.7436 C.ar    1  UNL1        0.1590
     10 F         144.4323  140.7992  158.7969 F       1  UNL1       -0.2027
     11 C         144.0723  139.8882  161.2032 C.ar    1  UNL1        0.0355
     12 S         142.3293  138.9215  157.7714 S.O2    1  UNL1        0.0772
     13 O         141.4135  140.0915  157.9771 O.2     1  UNL1       -0.1498
     14 O         143.2451  137.7515  157.5656 O.2     1  UNL1       -0.1498
     15 N         141.9835  138.9076  156.3119 N.pl3   1  UNL1       -0.1925
     16 H         142.6264  139.2517  155.6504 H       1  UNL1        0.1758
     17 C         140.6582  138.3694  155.8601 C.ar    1  UNL1        0.1977
     18 N         139.8847  138.8253  154.6585 N.ar    1  UNL1       -0.1997
     19 C         138.6222  138.0186  154.5864 C.ar    1  UNL1        0.2082
     20 N         138.6155  137.0639  155.7435 N.ar    1  UNL1       -0.1840
     21 S         139.8738  137.2808  156.5307 S.2     1  UNL1        0.0508
     22 C         143.0871  138.4478  166.0750 C.3     1  UNL1        0.1166
     23 C         142.2895  139.2894  167.0268 C.ar    1  UNL1       -0.0015
     24 C         140.9906  139.8953  166.5846 C.ar    1  UNL1        0.0006
     25 C         140.1930  140.7368  167.5363 C.ar    1  UNL1        0.0378
     26 C         140.6945  140.9724  168.9302 C.ar    1  UNL1        0.1572
     27 C         141.9934  140.3665  169.3724 C.ar    1  UNL1        0.0915
     28 CL        142.4949  140.6021  170.7664 Cl      1  UNL1       -0.0791
     29 C         142.7909  139.5250  168.4207 C.ar    1  UNL1        0.0118
     30 O         139.8969  141.8140  169.8819 O.3     1  UNL1       -0.4036
     31 C         140.1532  143.2890  169.9745 C.3     1  UNL1        0.5753
     32 F         140.4095  144.7641  170.0671 F       1  UNL1       -0.1328
     33 F         141.1094  143.1951  168.8227 F       1  UNL1       -0.1328
     34 F         139.1970  143.3828  171.1264 F       1  UNL1       -0.1328
@<TRIPOS>BOND
     1     1     2    2
     2     2     3   am
     3     3    22    1
     4    22    23    1
     5    23    24   ar
     6    24    25   ar
     7    25    26   ar
     8    26    30    1
     9    30    31    1
    10    31    32    1
    11    31    33    1
    12    31    34    1
    13    26    27   ar
    14    27    28    1
    15    27    29   ar
    16     2     5    1
    17     5     6   ar
    18     6     7   ar
    19     7     8   ar
    20     8    12    1
    21    12    13    2
    22    12    14    2
    23    12    15    1
    24    15    17    1
    25    17    18   ar
    26    18    19   ar
    27    19    20   ar
    28    20    21   ar
    29     8     9   ar
    30     9    10    1
    31     9    11   ar
    32    29    23   ar
    33    11     5   ar
    34    21    17   ar
    35     3     4    1
    36    15    16    1
@<TRIPOS>MOLECULE
*****
 34 36 0 0 0
SMALL
GASTEIGER

@<TRIPOS>ATOM
      1 O         144.3210  143.1191  161.6535 O.2     1  UNL1       -0.2701
      2 C         143.3649  141.9803  161.8505 C.2     1  UNL1        0.2462
      3 N         142.6689  141.8047  163.1676 N.am    1  UNL1       -0.2969
      4 H         142.0413  141.0572  163.2970 H       1  UNL1        0.1501
      5 C         143.1047  141.0171  160.7305 C.ar    1  UNL1        0.0557
      6 C         142.7304  141.5303  159.3716 C.ar    1  UNL1        0.0060
      7 C         142.4702  140.5671  158.2516 C.ar    1  UNL1        0.0226
      8 C         142.5844  139.0906  158.4904 C.ar    1  UNL1        0.1525
      9 C         142.9587  138.5774  159.8492 C.ar    1  UNL1        0.1590
     10 F         143.0729  137.1009  160.0880 F       1  UNL1       -0.2027
     11 C         143.2189  139.5407  160.9693 C.ar    1  UNL1        0.0355
     12 S         142.3243  138.1274  157.3703 S.O2    1  UNL1        0.0772
     13 O         143.7060  138.3710  156.8399 O.2     1  UNL1       -0.1498
     14 O         140.9425  137.8838  157.9007 O.2     1  UNL1       -0.1498
     15 N         142.0641  137.1642  156.2503 N.pl3   1  UNL1       -0.1925
     16 H         141.7012  137.4901  155.3951 H       1  UNL1        0.1758
     17 C         142.3568  135.7044  156.4332 C.ar    1  UNL1        0.1977
     18 N         143.2178  135.1055  157.5056 N.ar    1  UNL1       -0.1997
     19 C         143.2331  133.6182  157.3111 C.ar    1  UNL1        0.2082
     20 N         142.3816  133.2980  156.1185 N.ar    1  UNL1       -0.1840
     21 S         141.8400  134.5873  155.5759 S.2     1  UNL1        0.0508
     22 C         142.9290  142.7679  164.2877 C.3     1  UNL1        0.1166
     23 C         142.3999  142.4811  165.6617 C.ar    1  UNL1       -0.0015
     24 C         140.9351  142.2288  165.8638 C.ar    1  UNL1        0.0006
     25 C         140.4061  141.9420  167.2377 C.ar    1  UNL1        0.0378
     26 C         141.3418  141.9075  168.4096 C.ar    1  UNL1        0.1572
     27 C         142.8065  142.1597  168.2075 C.ar    1  UNL1        0.0915
     28 CL        143.7422  142.1252  169.3794 Cl      1  UNL1       -0.0791
     29 C         143.3355  142.4465  166.8336 C.ar    1  UNL1        0.0118
     30 O         140.8126  141.6207  169.7836 O.3     1  UNL1       -0.4036
     31 C         139.5550  140.8206  169.9511 C.3     1  UNL1        0.5753
     32 F         138.2973  140.0203  170.1185 F       1  UNL1       -0.1328
     33 F         140.2934  139.5768  169.5541 F       1  UNL1       -0.1328
     34 F         138.8165  142.0643  170.3481 F       1  UNL1       -0.1328
@<TRIPOS>BOND
     1     1     2    2
     2     2     3   am
     3     3    22    1
     4    22    23    1
     5    23    24   ar
     6    24    25   ar
     7    25    26   ar
     8    26    30    1
     9    30    31    1
    10    31    32    1
    11    31    33    1
    12    31    34    1
    13    26    27   ar
    14    27    28    1
    15    27    29   ar
    16     2     5    1
    17     5     6   ar
    18     6     7   ar
    19     7     8   ar
    20     8    12    1
    21    12    13    2
    22    12    14    2
    23    12    15    1
    24    15    17    1
    25    17    18   ar
    26    18    19   ar
    27    19    20   ar
    28    20    21   ar
    29     8     9   ar
    30     9    10    1
    31     9    11   ar
    32    29    23   ar
    33    11     5   ar
    34    21    17   ar
    35     3     4    1
    36    15    16    1
@<TRIPOS>MOLECULE
*****
 34 36 0 0 0
SMALL
GASTEIGER

@<TRIPOS>ATOM
      1 O         137.4677  137.8959  161.5640 O.2     1  UNL1       -0.2701
      2 C         138.5880  138.7924  162.0014 C.2     1  UNL1        0.2462
      3 N         139.4558  139.4624  160.9777 N.am    1  UNL1       -0.2969
      4 H         140.1910  140.0509  161.2648 H       1  UNL1        0.1501
      5 C         138.8404  139.0189  163.4626 C.ar    1  UNL1        0.0557
      6 C         138.9825  137.8482  164.3895 C.ar    1  UNL1        0.0060
      7 C         139.2349  138.0747  165.8506 C.ar    1  UNL1        0.0226
      8 C         139.3453  139.4720  166.3849 C.ar    1  UNL1        0.1525
      9 C         139.2032  140.6427  165.4580 C.ar    1  UNL1        0.1590
     10 F         139.3135  142.0400  165.9922 F       1  UNL1       -0.2027
     11 C         138.9507  140.4162  163.9968 C.ar    1  UNL1        0.0355
     12 S         139.5977  139.6985  167.8460 S.O2    1  UNL1        0.0772
     13 O         141.0161  140.0800  167.5418 O.2     1  UNL1       -0.1498
     14 O         138.1793  139.3170  168.1502 O.2     1  UNL1       -0.1498
     15 N         139.8501  139.9250  169.3071 N.pl3   1  UNL1       -0.1925
     16 H         139.6544  139.2117  169.9569 H       1  UNL1        0.1758
     17 C         140.4008  141.2383  169.7784 C.ar    1  UNL1        0.1977
     18 N         140.0955  142.5843  169.1907 N.ar    1  UNL1       -0.1997
     19 C         140.8594  143.6141  169.9691 C.ar    1  UNL1        0.2082
     20 N         141.6370  142.9045  171.0378 N.ar    1  UNL1       -0.1840
     21 S         141.3535  141.4363  170.9199 S.2     1  UNL1        0.0508
     22 C         139.2034  139.2359  159.5165 C.3     1  UNL1        0.1166
     23 C         140.2389  138.5524  158.6736 C.ar    1  UNL1       -0.0015
     24 C         141.6801  138.5781  159.0887 C.ar    1  UNL1        0.0006
     25 C         142.7156  137.8945  158.2458 C.ar    1  UNL1        0.0378
     26 C         142.3099  137.1854  156.9878 C.ar    1  UNL1        0.1572
     27 C         140.8687  137.1597  156.5727 C.ar    1  UNL1        0.0915
     28 CL        140.4631  136.4506  155.3148 Cl      1  UNL1       -0.0791
     29 C         139.8333  137.8432  157.4156 C.ar    1  UNL1        0.0118
     30 O         143.3455  136.5019  156.1449 O.3     1  UNL1       -0.4036
     31 C         143.4034  135.0038  156.0961 C.3     1  UNL1        0.5753
     32 F         143.4613  133.5057  156.0474 F       1  UNL1       -0.1328
     33 F         143.4063  134.9551  157.5953 F       1  UNL1       -0.1328
     34 F         143.4005  135.0525  154.5970 F       1  UNL1       -0.1328
@<TRIPOS>BOND
     1     1     2    2
     2     2     3   am
     3     3    22    1
     4    22    23    1
     5    23    24   ar
     6    24    25   ar
     7    25    26   ar
     8    26    30    1
     9    30    31    1
    10    31    32    1
    11    31    33    1
    12    31    34    1
    13    26    27   ar
    14    27    28    1
    15    27    29   ar
    16     2     5    1
    17     5     6   ar
    18     6     7   ar
    19     7     8   ar
    20     8    12    1
    21    12    13    2
    22    12    14    2
    23    12    15    1
    24    15    17    1
    25    17    18   ar
    26    18    19   ar
    27    19    20   ar
    28    20    21   ar
    29     8     9   ar
    30     9    10    1
    31     9    11   ar
    32    29    23   ar
    33    11     5   ar
    34    21    17   ar
    35     3     4    1
    36    15    16    1
@<TRIPOS>MOLECULE
*****
 34 36 0 0 0
SMALL
GASTEIGER

@<TRIPOS>ATOM
      1 O         138.8510  137.3213  156.2510 O.2     1  UNL1       -0.2701
      2 C         139.8811  138.2475  156.8264 C.2     1  UNL1        0.2462
      3 N         141.3147  138.1326  156.4001 N.am    1  UNL1       -0.2969
      4 H         141.9908  138.7405  156.7776 H       1  UNL1        0.1501
      5 C         139.4777  139.2887  157.8279 C.ar    1  UNL1        0.0557
      6 C         138.4199  140.2938  157.4803 C.ar    1  UNL1        0.0060
      7 C         138.0164  141.3349  158.4819 C.ar    1  UNL1        0.0226
      8 C         138.6708  141.3710  159.8312 C.ar    1  UNL1        0.1525
      9 C         139.7286  140.3659  160.1789 C.ar    1  UNL1        0.1590
     10 F         140.3829  140.4019  161.5281 F       1  UNL1       -0.2027
     11 C         140.1320  139.3247  159.1772 C.ar    1  UNL1        0.0355
     12 S         138.2674  142.4121  160.8328 S.O2    1  UNL1        0.0772
     13 O         137.4979  141.3771  161.5987 O.2     1  UNL1       -0.1498
     14 O         139.0369  143.4471  160.0669 O.2     1  UNL1       -0.1498
     15 N         137.8639  143.4533  161.8344 N.pl3   1  UNL1       -0.1925
     16 H         137.0841  144.0282  161.6598 H       1  UNL1        0.1758
     17 C         138.6487  143.6184  163.1021 C.ar    1  UNL1        0.1977
     18 N         140.1084  143.3223  163.2803 N.ar    1  UNL1       -0.1997
     19 C         140.4734  143.6295  164.7024 C.ar    1  UNL1        0.2082
     20 N         139.2393  144.1155  165.4031 N.ar    1  UNL1       -0.1840
     21 S         138.1116  144.1086  164.4140 S.2     1  UNL1        0.0508
     22 C         141.7181  137.0914  155.3985 C.3     1  UNL1        0.1166
     23 C         142.1382  135.7280  155.8617 C.ar    1  UNL1       -0.0015
     24 C         143.1758  135.5874  156.9358 C.ar    1  UNL1        0.0006
     25 C         143.5958  134.2240  157.3990 C.ar    1  UNL1        0.0378
     26 C         142.9782  133.0011  156.7882 C.ar    1  UNL1        0.1572
     27 C         141.9406  133.1416  155.7142 C.ar    1  UNL1        0.0915
     28 CL        141.3229  131.9187  155.1034 Cl      1  UNL1       -0.0791
     29 C         141.5206  134.5051  155.2509 C.ar    1  UNL1        0.0118
     30 O         143.3982  131.6376  157.2515 O.3     1  UNL1       -0.4036
     31 C         144.3215  130.8101  156.4072 C.3     1  UNL1        0.5753
     32 F         145.2448  129.9825  155.5630 F       1  UNL1       -0.1328
     33 F         145.2288  131.9928  156.2402 F       1  UNL1       -0.1328
     34 F         143.4141  129.6274  156.5743 F       1  UNL1       -0.1328
@<TRIPOS>BOND
     1     1     2    2
     2     2     3   am
     3     3    22    1
     4    22    23    1
     5    23    24   ar
     6    24    25   ar
     7    25    26   ar
     8    26    30    1
     9    30    31    1
    10    31    32    1
    11    31    33    1
    12    31    34    1
    13    26    27   ar
    14    27    28    1
    15    27    29   ar
    16     2     5    1
    17     5     6   ar
    18     6     7   ar
    19     7     8   ar
    20     8    12    1
    21    12    13    2
    22    12    14    2
    23    12    15    1
    24    15    17    1
    25    17    18   ar
    26    18    19   ar
    27    19    20   ar
    28    20    21   ar
    29     8     9   ar
    30     9    10    1
    31     9    11   ar
    32    29    23   ar
    33    11     5   ar
    34    21    17   ar
    35     3     4    1
    36    15    16    1
@<TRIPOS>MOLECULE
*****
 34 36 0 0 0
SMALL
GASTEIGER

@<TRIPOS>ATOM
      1 O         138.0624  141.7277  164.7161 O.2     1  UNL1       -0.2701
      2 C         138.2013  140.4193  163.9958 C.2     1  UNL1        0.2462
      3 N         138.2115  139.1344  164.7699 N.am    1  UNL1       -0.2969
      4 H         138.3026  138.2757  164.2971 H       1  UNL1        0.1501
      5 C         138.3299  140.3957  162.5015 C.ar    1  UNL1        0.0557
      6 C         138.5236  139.0917  161.7859 C.ar    1  UNL1        0.0060
      7 C         138.6523  139.0681  160.2917 C.ar    1  UNL1        0.0226
      8 C         138.5871  140.3485  159.5129 C.ar    1  UNL1        0.1525
      9 C         138.3933  141.6525  160.2285 C.ar    1  UNL1        0.1590
     10 F         138.3282  142.9329  159.4499 F       1  UNL1       -0.2027
     11 C         138.2647  141.6761  161.7229 C.ar    1  UNL1        0.0355
     12 S         138.7157  140.3249  158.0187 S.O2    1  UNL1        0.0772
     13 O         140.2102  140.3234  158.1473 O.2     1  UNL1       -0.1498
     14 O         137.2213  140.3264  157.8900 O.2     1  UNL1       -0.1498
     15 N         138.8443  140.3013  156.5244 N.pl3   1  UNL1       -0.1925
     16 H         138.6338  141.1072  155.9995 H       1  UNL1        0.1758
     17 C         139.2937  139.0500  155.8300 C.ar    1  UNL1        0.1977
     18 N         139.0644  137.6463  156.3065 N.ar    1  UNL1       -0.1997
     19 C         139.6802  136.7114  155.3082 C.ar    1  UNL1        0.2082
     20 N         140.2901  137.5373  154.2146 N.ar    1  UNL1       -0.1840
     21 S         140.0512  138.9826  154.5371 S.2     1  UNL1        0.0508
     22 C         138.0829  139.1580  166.2641 C.3     1  UNL1        0.1166
     23 C         139.2521  139.5648  167.1112 C.ar    1  UNL1       -0.0015
     24 C         139.0406  139.9541  168.5443 C.ar    1  UNL1        0.0006
     25 C         140.2098  140.3608  169.3913 C.ar    1  UNL1        0.0378
     26 C         141.5905  140.3782  168.8053 C.ar    1  UNL1        0.1572
     27 C         141.8020  139.9888  167.3723 C.ar    1  UNL1        0.0915
     28 CL        143.1827  140.0062  166.7863 Cl      1  UNL1       -0.0791
     29 C         140.6328  139.5821  166.5253 C.ar    1  UNL1        0.0118
     30 O         142.7597  140.7849  169.6524 O.3     1  UNL1       -0.4036
     31 C         142.8908  142.2048  170.1179 C.3     1  UNL1        0.5753
     32 F         143.0218  143.6248  170.5834 F       1  UNL1       -0.1328
     33 F         143.6049  142.5557  168.8464 F       1  UNL1       -0.1328
     34 F         142.1766  141.8539  171.3894 F       1  UNL1       -0.1328
@<TRIPOS>BOND
     1     1     2    2
     2     2     3   am
     3     3    22    1
     4    22    23    1
     5    23    24   ar
     6    24    25   ar
     7    25    26   ar
     8    26    30    1
     9    30    31    1
    10    31    32    1
    11    31    33    1
    12    31    34    1
    13    26    27   ar
    14    27    28    1
    15    27    29   ar
    16     2     5    1
    17     5     6   ar
    18     6     7   ar
    19     7     8   ar
    20     8    12    1
    21    12    13    2
    22    12    14    2
    23    12    15    1
    24    15    17    1
    25    17    18   ar
    26    18    19   ar
    27    19    20   ar
    28    20    21   ar
    29     8     9   ar
    30     9    10    1
    31     9    11   ar
    32    29    23   ar
    33    11     5   ar
    34    21    17   ar
    35     3     4    1
    36    15    16    1
@<TRIPOS>MOLECULE
*****
 34 36 0 0 0
SMALL
GASTEIGER

@<TRIPOS>ATOM
      1 O         140.2533  138.1368  163.7676 O.2     1  UNL1       -0.2701
      2 C         139.2142  139.1138  163.3032 C.2     1  UNL1        0.2462
      3 N         138.3057  139.7722  164.2988 N.am    1  UNL1       -0.2969
      4 H         137.6236  140.4134  163.9940 H       1  UNL1        0.1501
      5 C         139.0836  139.4325  161.8433 C.ar    1  UNL1        0.0557
      6 C         139.3646  138.3754  160.8168 C.ar    1  UNL1        0.0060
      7 C         139.2340  138.6940  159.3569 C.ar    1  UNL1        0.0226
      8 C         138.8224  140.0698  158.9234 C.ar    1  UNL1        0.1525
      9 C         138.5413  141.1269  159.9499 C.ar    1  UNL1        0.1590
     10 F         138.1297  142.5026  159.5164 F       1  UNL1       -0.2027
     11 C         138.6720  140.8082  161.4098 C.ar    1  UNL1        0.0355
     12 S         138.6917  140.3885  157.4635 S.O2    1  UNL1        0.0772
     13 O         137.1984  140.4117  157.6022 O.2     1  UNL1       -0.1498
     14 O         140.1851  140.3652  157.3248 O.2     1  UNL1       -0.1498
     15 N         138.5611  140.7071  156.0036 N.pl3   1  UNL1       -0.1925
     16 H         138.9961  141.5093  155.6340 H       1  UNL1        0.1758
     17 C         137.7678  139.8035  155.1067 C.ar    1  UNL1        0.1977
     18 N         137.7730  138.3039  155.1384 N.ar    1  UNL1       -0.1997
     19 C         136.8385  137.8145  154.0720 C.ar    1  UNL1        0.2082
     20 N         136.2557  139.0117  153.3813 N.ar    1  UNL1       -0.1840
     21 S         136.8301  140.2410  154.0208 S.2     1  UNL1        0.0508
     22 C         138.4363  139.4535  165.7587 C.3     1  UNL1        0.1166
     23 C         139.2469  140.3456  166.6515 C.ar    1  UNL1       -0.0015
     24 C         139.8065  141.6313  166.1188 C.ar    1  UNL1        0.0006
     25 C         140.6172  142.5234  167.0116 C.ar    1  UNL1        0.0378
     26 C         140.8682  142.1297  168.4371 C.ar    1  UNL1        0.1572
     27 C         140.3086  140.8440  168.9698 C.ar    1  UNL1        0.0915
     28 CL        140.5596  140.4503  170.3952 Cl      1  UNL1       -0.0791
     29 C         139.4980  139.9520  168.0770 C.ar    1  UNL1        0.0118
     30 O         141.6789  143.0218  169.3299 O.3     1  UNL1       -0.4036
     31 C         143.0876  142.6480  169.6843 C.3     1  UNL1        0.5753
     32 F         144.4965  142.2743  170.0386 F       1  UNL1       -0.1328
     33 F         143.4203  142.5203  168.2272 F       1  UNL1       -0.1328
     34 F         142.7550  142.7758  171.1413 F       1  UNL1       -0.1328
@<TRIPOS>BOND
     1     1     2    2
     2     2     3   am
     3     3    22    1
     4    22    23    1
     5    23    24   ar
     6    24    25   ar
     7    25    26   ar
     8    26    30    1
     9    30    31    1
    10    31    32    1
    11    31    33    1
    12    31    34    1
    13    26    27   ar
    14    27    28    1
    15    27    29   ar
    16     2     5    1
    17     5     6   ar
    18     6     7   ar
    19     7     8   ar
    20     8    12    1
    21    12    13    2
    22    12    14    2
    23    12    15    1
    24    15    17    1
    25    17    18   ar
    26    18    19   ar
    27    19    20   ar
    28    20    21   ar
    29     8     9   ar
    30     9    10    1
    31     9    11   ar
    32    29    23   ar
    33    11     5   ar
    34    21    17   ar
    35     3     4    1
    36    15    16    1
