@<TRIPOS>MOLECULE
*****
 27 29 0 0 0
SMALL
GASTEIGER

@<TRIPOS>ATOM
      1 C         141.6385  143.1925  163.5548 C.ar    1  UNL1        0.0288
      2 C         141.7817  142.2064  164.6759 C.ar    1  UNL1        0.0147
      3 C         142.9876  142.2535  165.5668 C.ar    1  UNL1        0.0482
      4 C         144.0503  143.2868  165.3365 C.ar    1  UNL1        0.0177
      5 C         143.9071  144.2730  164.2154 C.ar    1  UNL1        0.0376
      6 C         142.7011  144.2258  163.3245 C.ar    1  UNL1        0.1310
      7 O         142.5579  145.2120  162.2034 O.3     1  UNL1       -0.5058
      8 H         143.2217  145.8575  162.0595 H       1  UNL1        0.2922
      9 N         143.1308  141.2673  166.6879 N.pl3   1  UNL1       -0.3125
     10 H         143.4797  140.3645  166.5078 H       1  UNL1        0.1522
     11 C         142.7424  141.6567  168.0835 C.ar    1  UNL1        0.0513
     12 C         143.6572  142.5165  168.9043 C.ar    1  UNL1        0.0353
     13 C         143.2688  142.9059  170.2998 C.ar    1  UNL1        0.1001
     14 N         141.9656  142.4355  170.8745 N.ar    1  UNL1       -0.2437
     15 C         141.0507  141.5757  170.0537 C.ar    1  UNL1        0.0833
     16 C         139.7475  141.1053  170.6284 C.ar    1  UNL1        0.0305
     17 C         138.8326  140.2455  169.8075 C.ar    1  UNL1        0.0592
     18 CL        137.5294  139.7751  170.3822 Cl      1  UNL1       -0.0822
     19 C         139.2210  139.8561  168.4119 C.ar    1  UNL1        0.0115
     20 C         140.5243  140.3265  167.8373 C.ar    1  UNL1        0.0036
     21 C         141.4391  141.1863  168.6582 C.ar    1  UNL1        0.0312
     22 C         140.4326  143.1454  162.6639 C.3     1  UNL1        0.1022
     23 N         139.1362  143.7430  163.1243 N.3     1  UNL1       -0.2689
     24 C         137.4849  141.7373  163.0988 C.3     1  UNL1        0.0188
     25 C         137.8347  143.1373  162.6892 C.3     1  UNL1        0.0724
     26 C         139.1412  144.9464  164.0198 C.3     1  UNL1        0.0724
     27 C         138.6218  144.8393  165.4229 C.3     1  UNL1        0.0188
@<TRIPOS>BOND
     1    24    25    1
     2    25    23    1
     3    23    26    1
     4    26    27    1
     5    23    22    1
     6    22     1    1
     7     1     2   ar
     8     2     3   ar
     9     3     9    1
    10     9    11    1
    11    11    12   ar
    12    12    13   ar
    13    13    14   ar
    14    14    15   ar
    15    15    16   ar
    16    16    17   ar
    17    17    18    1
    18    17    19   ar
    19    19    20   ar
    20    20    21   ar
    21     3     4   ar
    22     4     5   ar
    23     5     6   ar
    24     6     7    1
    25     6     1   ar
    26    21    11   ar
    27    21    15   ar
    28     9    10    1
    29     7     8    1
@<TRIPOS>MOLECULE
*****
 27 29 0 0 0
SMALL
GASTEIGER

@<TRIPOS>ATOM
      1 C         142.4853  144.1730  164.0223 C.ar    1  UNL1        0.0288
      2 C         142.2065  142.9013  164.7673 C.ar    1  UNL1        0.0147
      3 C         143.2240  141.7993  164.7771 C.ar    1  UNL1        0.0482
      4 C         144.5205  141.9690  164.0419 C.ar    1  UNL1        0.0177
      5 C         144.7993  143.2407  163.2969 C.ar    1  UNL1        0.0376
      6 C         143.7817  144.3427  163.2871 C.ar    1  UNL1        0.1310
      7 O         144.0606  145.6145  162.5422 O.3     1  UNL1       -0.5058
      8 H         144.8704  145.7205  162.0830 H       1  UNL1        0.2922
      9 N         142.9451  140.5276  165.5220 N.pl3   1  UNL1       -0.3125
     10 H         143.3166  140.3938  166.4239 H       1  UNL1        0.1522
     11 C         142.1002  139.4597  164.8928 C.ar    1  UNL1        0.0513
     12 C         142.5683  138.7707  163.6454 C.ar    1  UNL1        0.0353
     13 C         141.7234  137.7029  163.0163 C.ar    1  UNL1        0.1001
     14 N         140.4104  137.3240  163.6347 N.ar    1  UNL1       -0.2437
     15 C         139.9422  138.0130  164.8821 C.ar    1  UNL1        0.0833
     16 C         138.6291  137.6341  165.5004 C.ar    1  UNL1        0.0305
     17 C         138.1610  138.3231  166.7478 C.ar    1  UNL1        0.0592
     18 CL        136.8479  137.9442  167.3662 Cl      1  UNL1       -0.0822
     19 C         139.0059  139.3910  167.3770 C.ar    1  UNL1        0.0115
     20 C         140.3190  139.7698  166.7587 C.ar    1  UNL1        0.0036
     21 C         140.7871  139.0808  165.5112 C.ar    1  UNL1        0.0312
     22 C         141.4677  145.2751  164.0125 C.3     1  UNL1        0.1022
     23 N         140.2344  145.1496  163.1681 N.3     1  UNL1       -0.2689
     24 C         138.6908  144.7666  165.2226 C.3     1  UNL1        0.0188
     25 C         138.9739  144.5920  163.7599 C.3     1  UNL1        0.0724
     26 C         140.2615  145.5818  161.7320 C.3     1  UNL1        0.0724
     27 C         141.0907  144.8255  160.7368 C.3     1  UNL1        0.0188
@<TRIPOS>BOND
     1    24    25    1
     2    25    23    1
     3    23    26    1
     4    26    27    1
     5    23    22    1
     6    22     1    1
     7     1     2   ar
     8     2     3   ar
     9     3     9    1
    10     9    11    1
    11    11    12   ar
    12    12    13   ar
    13    13    14   ar
    14    14    15   ar
    15    15    16   ar
    16    16    17   ar
    17    17    18    1
    18    17    19   ar
    19    19    20   ar
    20    20    21   ar
    21     3     4   ar
    22     4     5   ar
    23     5     6   ar
    24     6     7    1
    25     6     1   ar
    26    21    11   ar
    27    21    15   ar
    28     9    10    1
    29     7     8    1
@<TRIPOS>MOLECULE
*****
 27 29 0 0 0
SMALL
GASTEIGER

@<TRIPOS>ATOM
      1 C         141.4880  143.2829  162.7036 C.ar    1  UNL1        0.0288
      2 C         141.8126  142.3403  163.8244 C.ar    1  UNL1        0.0147
      3 C         143.1066  142.4792  164.5702 C.ar    1  UNL1        0.0482
      4 C         144.0761  143.5607  164.1953 C.ar    1  UNL1        0.0177
      5 C         143.7515  144.5033  163.0745 C.ar    1  UNL1        0.0376
      6 C         142.4574  144.3644  162.3287 C.ar    1  UNL1        0.1310
      7 O         142.1329  145.3070  161.2079 O.3     1  UNL1       -0.5058
      8 H         142.7384  145.9825  160.9736 H       1  UNL1        0.2922
      9 N         143.4312  141.5366  165.6910 N.pl3   1  UNL1       -0.3125
     10 H         144.1780  140.9016  165.5995 H       1  UNL1        0.1522
     11 C         142.6179  141.5614  166.9512 C.ar    1  UNL1        0.0513
     12 C         143.0886  142.3576  168.1320 C.ar    1  UNL1        0.0353
     13 C         142.2753  142.3824  169.3921 C.ar    1  UNL1        0.1001
     14 N         140.9913  141.6110  169.4714 N.ar    1  UNL1       -0.2437
     15 C         140.5206  140.8148  168.2905 C.ar    1  UNL1        0.0833
     16 C         139.2366  140.0434  168.3698 C.ar    1  UNL1        0.0305
     17 C         138.7659  139.2472  167.1889 C.ar    1  UNL1        0.0592
     18 CL        137.4819  138.4758  167.2682 Cl      1  UNL1       -0.0822
     19 C         139.5792  139.2223  165.9287 C.ar    1  UNL1        0.0115
     20 C         140.8632  139.9937  165.8495 C.ar    1  UNL1        0.0036
     21 C         141.3339  140.7900  167.0304 C.ar    1  UNL1        0.0312
     22 C         140.1940  143.1440  161.9578 C.3     1  UNL1        0.1022
     23 N         138.8999  143.4974  162.6289 N.3     1  UNL1       -0.2689
     24 C         138.9391  144.7913  164.8815 C.3     1  UNL1        0.0188
     25 C         138.7768  144.7839  163.3903 C.3     1  UNL1        0.0724
     26 C         137.7289  142.5643  162.5386 C.3     1  UNL1        0.0724
     27 C         137.6853  141.3309  163.3910 C.3     1  UNL1        0.0188
@<TRIPOS>BOND
     1    24    25    1
     2    25    23    1
     3    23    26    1
     4    26    27    1
     5    23    22    1
     6    22     1    1
     7     1     2   ar
     8     2     3   ar
     9     3     9    1
    10     9    11    1
    11    11    12   ar
    12    12    13   ar
    13    13    14   ar
    14    14    15   ar
    15    15    16   ar
    16    16    17   ar
    17    17    18    1
    18    17    19   ar
    19    19    20   ar
    20    20    21   ar
    21     3     4   ar
    22     4     5   ar
    23     5     6   ar
    24     6     7    1
    25     6     1   ar
    26    21    11   ar
    27    21    15   ar
    28     9    10    1
    29     7     8    1
@<TRIPOS>MOLECULE
*****
 27 29 0 0 0
SMALL
GASTEIGER

@<TRIPOS>ATOM
      1 C         140.6061  144.7021  163.5998 C.ar    1  UNL1        0.0288
      2 C         140.2657  143.4306  164.3190 C.ar    1  UNL1        0.0147
      3 C         138.8765  142.8710  164.2363 C.ar    1  UNL1        0.0482
      4 C         137.8276  143.5829  163.4343 C.ar    1  UNL1        0.0177
      5 C         138.1680  144.8545  162.7151 C.ar    1  UNL1        0.0376
      6 C         139.5573  145.4141  162.7979 C.ar    1  UNL1        0.1310
      7 O         139.8977  146.6856  162.0786 O.3     1  UNL1       -0.5058
      8 H         139.2426  147.1303  161.5777 H       1  UNL1        0.2922
      9 N         138.5361  141.5994  164.9555 N.pl3   1  UNL1       -0.3125
     10 H         137.9942  141.6284  165.7770 H       1  UNL1        0.1522
     11 C         139.0213  140.2837  164.4232 C.ar    1  UNL1        0.0513
     12 C         138.2443  139.5748  163.3537 C.ar    1  UNL1        0.0353
     13 C         138.7296  138.2591  162.8214 C.ar    1  UNL1        0.1001
     14 N         139.9918  137.6522  163.3586 N.ar    1  UNL1       -0.2437
     15 C         140.7687  138.3611  164.4280 C.ar    1  UNL1        0.0833
     16 C         142.0309  137.7542  164.9652 C.ar    1  UNL1        0.0305
     17 C         142.8079  138.4630  166.0347 C.ar    1  UNL1        0.0592
     18 CL        144.0701  137.8562  166.5719 Cl      1  UNL1       -0.0822
     19 C         142.3226  139.7788  166.5671 C.ar    1  UNL1        0.0115
     20 C         141.0604  140.3857  166.0299 C.ar    1  UNL1        0.0036
     21 C         140.2835  139.6768  164.9604 C.ar    1  UNL1        0.0312
     22 C         141.9954  145.2618  163.6825 C.3     1  UNL1        0.1022
     23 N         143.1792  144.3632  163.4797 N.3     1  UNL1       -0.2689
     24 C         144.6974  143.0265  161.8492 C.3     1  UNL1        0.0188
     25 C         143.3818  143.6757  162.1620 C.3     1  UNL1        0.0724
     26 C         144.1604  144.1522  164.5944 C.3     1  UNL1        0.0724
     27 C         144.0142  142.9723  165.5090 C.3     1  UNL1        0.0188
@<TRIPOS>BOND
     1    24    25    1
     2    25    23    1
     3    23    26    1
     4    26    27    1
     5    23    22    1
     6    22     1    1
     7     1     2   ar
     8     2     3   ar
     9     3     9    1
    10     9    11    1
    11    11    12   ar
    12    12    13   ar
    13    13    14   ar
    14    14    15   ar
    15    15    16   ar
    16    16    17   ar
    17    17    18    1
    18    17    19   ar
    19    19    20   ar
    20    20    21   ar
    21     3     4   ar
    22     4     5   ar
    23     5     6   ar
    24     6     7    1
    25     6     1   ar
    26    21    11   ar
    27    21    15   ar
    28     9    10    1
    29     7     8    1
@<TRIPOS>MOLECULE
*****
 27 29 0 0 0
SMALL
GASTEIGER

@<TRIPOS>ATOM
      1 C         140.6160  139.9562  168.0868 C.ar    1  UNL1        0.0288
      2 C         139.3475  140.2744  167.3522 C.ar    1  UNL1        0.0147
      3 C         139.2763  140.0931  165.8650 C.ar    1  UNL1        0.0482
      4 C         140.4738  139.5935  165.1122 C.ar    1  UNL1        0.0177
      5 C         141.7423  139.2752  165.8468 C.ar    1  UNL1        0.0376
      6 C         141.8133  139.4566  167.3341 C.ar    1  UNL1        0.1310
      7 O         143.0818  139.1383  168.0687 O.3     1  UNL1       -0.5058
      8 H         143.8298  138.8262  167.5985 H       1  UNL1        0.2922
      9 N         138.0078  140.4114  165.1304 N.pl3   1  UNL1       -0.3125
     10 H         137.1842  139.9106  165.3305 H       1  UNL1        0.1522
     11 C         137.9943  141.4927  164.0908 C.ar    1  UNL1        0.0513
     12 C         137.8416  142.9270  164.5024 C.ar    1  UNL1        0.0353
     13 C         137.8281  144.0081  163.4628 C.ar    1  UNL1        0.1001
     14 N         137.9672  143.6551  162.0116 N.ar    1  UNL1       -0.2437
     15 C         138.1199  142.2208  161.6000 C.ar    1  UNL1        0.0833
     16 C         138.2591  141.8677  160.1488 C.ar    1  UNL1        0.0305
     17 C         138.4118  140.4334  159.7372 C.ar    1  UNL1        0.0592
     18 CL        138.5510  140.0803  158.2860 Cl      1  UNL1       -0.0822
     19 C         138.4253  139.3521  160.7768 C.ar    1  UNL1        0.0115
     20 C         138.2862  139.7052  162.2280 C.ar    1  UNL1        0.0036
     21 C         138.1335  141.1396  162.6396 C.ar    1  UNL1        0.0312
     22 C         140.6870  140.1375  169.5741 C.3     1  UNL1        0.1022
     23 N         141.1201  141.4534  170.1494 N.3     1  UNL1       -0.2689
     24 C         143.4962  142.2601  169.4761 C.3     1  UNL1        0.0188
     25 C         142.5612  141.6821  170.4968 C.3     1  UNL1        0.0724
     26 C         140.1120  142.5405  170.3773 C.3     1  UNL1        0.0724
     27 C         140.3316  143.9024  169.7884 C.3     1  UNL1        0.0188
@<TRIPOS>BOND
     1    24    25    1
     2    25    23    1
     3    23    26    1
     4    26    27    1
     5    23    22    1
     6    22     1    1
     7     1     2   ar
     8     2     3   ar
     9     3     9    1
    10     9    11    1
    11    11    12   ar
    12    12    13   ar
    13    13    14   ar
    14    14    15   ar
    15    15    16   ar
    16    16    17   ar
    17    17    18    1
    18    17    19   ar
    19    19    20   ar
    20    20    21   ar
    21     3     4   ar
    22     4     5   ar
    23     5     6   ar
    24     6     7    1
    25     6     1   ar
    26    21    11   ar
    27    21    15   ar
    28     9    10    1
    29     7     8    1
@<TRIPOS>MOLECULE
*****
 27 29 0 0 0
SMALL
GASTEIGER

@<TRIPOS>ATOM
      1 C         138.4439  142.7605  163.5725 C.ar    1  UNL1        0.0288
      2 C         138.7840  141.7716  164.6479 C.ar    1  UNL1        0.0147
      3 C         138.5721  140.3054  164.4127 C.ar    1  UNL1        0.0482
      4 C         138.0201  139.8280  163.1021 C.ar    1  UNL1        0.0177
      5 C         137.6801  140.8169  162.0267 C.ar    1  UNL1        0.0376
      6 C         137.8920  142.2832  162.2620 C.ar    1  UNL1        0.1310
      7 O         137.5520  143.2721  161.1866 O.3     1  UNL1       -0.5058
      8 H         137.2072  142.9739  160.3679 H       1  UNL1        0.2922
      9 N         138.9121  139.3165  165.4881 N.pl3   1  UNL1       -0.3125
     10 H         138.2078  138.7467  165.8735 H       1  UNL1        0.1522
     11 C         140.3254  139.1957  165.9763 C.ar    1  UNL1        0.0513
     12 C         141.3446  138.4686  165.1502 C.ar    1  UNL1        0.0353
     13 C         142.7578  138.3478  165.6384 C.ar    1  UNL1        0.1001
     14 N         143.1517  138.9541  166.9527 N.ar    1  UNL1       -0.2437
     15 C         142.1324  139.6812  167.7787 C.ar    1  UNL1        0.0833
     16 C         142.5263  140.2875  169.0929 C.ar    1  UNL1        0.0305
     17 C         141.5070  141.0146  169.9190 C.ar    1  UNL1        0.0592
     18 CL        141.9009  141.6210  171.2332 Cl      1  UNL1       -0.0822
     19 C         140.0938  141.1354  169.4308 C.ar    1  UNL1        0.0115
     20 C         139.6999  140.5291  168.1166 C.ar    1  UNL1        0.0036
     21 C         140.7192  139.8020  167.2905 C.ar    1  UNL1        0.0312
     22 C         138.6558  144.2267  163.8077 C.3     1  UNL1        0.1022
     23 N         139.9349  144.8788  163.3733 N.3     1  UNL1       -0.2689
     24 C         140.2567  145.4597  160.8615 C.3     1  UNL1        0.0188
     25 C         139.9236  145.8850  162.2609 C.3     1  UNL1        0.0724
     26 C         141.2252  144.5248  164.0514 C.3     1  UNL1        0.0724
     27 C         142.4573  145.3397  163.7912 C.3     1  UNL1        0.0188
@<TRIPOS>BOND
     1    24    25    1
     2    25    23    1
     3    23    26    1
     4    26    27    1
     5    23    22    1
     6    22     1    1
     7     1     2   ar
     8     2     3   ar
     9     3     9    1
    10     9    11    1
    11    11    12   ar
    12    12    13   ar
    13    13    14   ar
    14    14    15   ar
    15    15    16   ar
    16    16    17   ar
    17    17    18    1
    18    17    19   ar
    19    19    20   ar
    20    20    21   ar
    21     3     4   ar
    22     4     5   ar
    23     5     6   ar
    24     6     7    1
    25     6     1   ar
    26    21    11   ar
    27    21    15   ar
    28     9    10    1
    29     7     8    1
@<TRIPOS>MOLECULE
*****
 27 29 0 0 0
SMALL
GASTEIGER

@<TRIPOS>ATOM
      1 C         143.9316  141.6692  162.5892 C.ar    1  UNL1        0.0288
      2 C         142.5829  141.0411  162.7809 C.ar    1  UNL1        0.0147
      3 C         142.4301  139.8540  163.6850 C.ar    1  UNL1        0.0482
      4 C         143.6260  139.2949  164.3974 C.ar    1  UNL1        0.0177
      5 C         144.9746  139.9230  164.2057 C.ar    1  UNL1        0.0376
      6 C         145.1274  141.1101  163.3016 C.ar    1  UNL1        0.1310
      7 O         146.4760  141.7382  163.1099 O.3     1  UNL1       -0.5058
      8 H         147.2230  141.3890  163.5549 H       1  UNL1        0.2922
      9 N         141.0815  139.2259  163.8767 N.pl3   1  UNL1       -0.3125
     10 H         141.0063  138.3424  164.3045 H       1  UNL1        0.1522
     11 C         139.8475  139.9440  163.4166 C.ar    1  UNL1        0.0513
     12 C         138.9928  139.3499  162.3367 C.ar    1  UNL1        0.0353
     13 C         137.7588  140.0680  161.8766 C.ar    1  UNL1        0.1001
     14 N         137.3796  141.3802  162.4966 N.ar    1  UNL1       -0.2437
     15 C         138.2343  141.9743  163.5766 C.ar    1  UNL1        0.0833
     16 C         137.8551  143.2865  164.1966 C.ar    1  UNL1        0.0305
     17 C         138.7099  143.8806  165.2766 C.ar    1  UNL1        0.0592
     18 CL        138.3306  145.1927  165.8965 Cl      1  UNL1       -0.0822
     19 C         139.9439  143.1625  165.7366 C.ar    1  UNL1        0.0115
     20 C         140.3231  141.8503  165.1167 C.ar    1  UNL1        0.0036
     21 C         139.4683  141.2562  164.0366 C.ar    1  UNL1        0.0312
     22 C         144.0843  142.8563  161.6851 C.3     1  UNL1        0.1022
     23 N         143.3361  144.1230  161.9776 N.3     1  UNL1       -0.2689
     24 C         143.8987  144.6774  164.4527 C.3     1  UNL1        0.0188
     25 C         143.8564  145.0804  163.0084 C.3     1  UNL1        0.0724
     26 C         142.0676  144.4324  161.2392 C.3     1  UNL1        0.0724
     27 C         140.7432  144.2786  161.9265 C.3     1  UNL1        0.0188
@<TRIPOS>BOND
     1    24    25    1
     2    25    23    1
     3    23    26    1
     4    26    27    1
     5    23    22    1
     6    22     1    1
     7     1     2   ar
     8     2     3   ar
     9     3     9    1
    10     9    11    1
    11    11    12   ar
    12    12    13   ar
    13    13    14   ar
    14    14    15   ar
    15    15    16   ar
    16    16    17   ar
    17    17    18    1
    18    17    19   ar
    19    19    20   ar
    20    20    21   ar
    21     3     4   ar
    22     4     5   ar
    23     5     6   ar
    24     6     7    1
    25     6     1   ar
    26    21    11   ar
    27    21    15   ar
    28     9    10    1
    29     7     8    1
@<TRIPOS>MOLECULE
*****
 27 29 0 0 0
SMALL
GASTEIGER

@<TRIPOS>ATOM
      1 C         138.0296  140.3044  163.0919 C.ar    1  UNL1        0.0288
      2 C         139.0230  140.1516  164.2054 C.ar    1  UNL1        0.0147
      3 C         139.8228  138.8887  164.3290 C.ar    1  UNL1        0.0482
      4 C         139.6293  137.7785  163.3389 C.ar    1  UNL1        0.0177
      5 C         138.6360  137.9313  162.2254 C.ar    1  UNL1        0.0376
      6 C         137.8361  139.1943  162.1019 C.ar    1  UNL1        0.1310
      7 O         136.8427  139.3471  160.9884 O.3     1  UNL1       -0.5058
      8 H         136.7219  138.6536  160.3700 H       1  UNL1        0.2922
      9 N         140.8162  138.7360  165.4425 N.pl3   1  UNL1       -0.3125
     10 H         140.9668  137.8525  165.8500 H       1  UNL1        0.1522
     11 C         141.5800  139.9293  165.9351 C.ar    1  UNL1        0.0513
     12 C         142.7731  140.4234  165.1720 C.ar    1  UNL1        0.0353
     13 C         143.5369  141.6166  165.6646 C.ar    1  UNL1        0.1001
     14 N         143.1075  142.3158  166.9204 N.ar    1  UNL1       -0.2437
     15 C         141.9144  141.8217  167.6835 C.ar    1  UNL1        0.0833
     16 C         141.4851  142.5209  168.9392 C.ar    1  UNL1        0.0305
     17 C         140.2920  142.0268  169.7023 C.ar    1  UNL1        0.0592
     18 CL        139.8627  142.7259  170.9580 Cl      1  UNL1       -0.0822
     19 C         139.5282  140.8334  169.2096 C.ar    1  UNL1        0.0115
     20 C         139.9575  140.1343  167.9539 C.ar    1  UNL1        0.0036
     21 C         141.1507  140.6284  167.1908 C.ar    1  UNL1        0.0312
     22 C         137.2298  141.5674  162.9684 C.3     1  UNL1        0.1022
     23 N         137.8784  142.8188  162.4557 N.3     1  UNL1       -0.2689
     24 C         140.2217  142.7749  161.3343 C.3     1  UNL1        0.0188
     25 C         138.7261  142.7717  161.2191 C.3     1  UNL1        0.0724
     26 C         137.6795  144.1175  163.1795 C.3     1  UNL1        0.0724
     27 C         138.4307  144.3915  164.4486 C.3     1  UNL1        0.0188
@<TRIPOS>BOND
     1    24    25    1
     2    25    23    1
     3    23    26    1
     4    26    27    1
     5    23    22    1
     6    22     1    1
     7     1     2   ar
     8     2     3   ar
     9     3     9    1
    10     9    11    1
    11    11    12   ar
    12    12    13   ar
    13    13    14   ar
    14    14    15   ar
    15    15    16   ar
    16    16    17   ar
    17    17    18    1
    18    17    19   ar
    19    19    20   ar
    20    20    21   ar
    21     3     4   ar
    22     4     5   ar
    23     5     6   ar
    24     6     7    1
    25     6     1   ar
    26    21    11   ar
    27    21    15   ar
    28     9    10    1
    29     7     8    1
@<TRIPOS>MOLECULE
*****
 27 29 0 0 0
SMALL
GASTEIGER

@<TRIPOS>ATOM
      1 C         140.4654  143.8798  163.3765 C.ar    1  UNL1        0.0288
      2 C         140.8660  142.5355  163.9078 C.ar    1  UNL1        0.0147
      3 C         142.2452  142.3277  164.4596 C.ar    1  UNL1        0.0482
      4 C         143.2239  143.4643  164.4802 C.ar    1  UNL1        0.0177
      5 C         142.8233  144.8086  163.9489 C.ar    1  UNL1        0.0376
      6 C         141.4440  145.0164  163.3970 C.ar    1  UNL1        0.1310
      7 O         141.0435  146.3607  162.8657 O.3     1  UNL1       -0.5058
      8 H         141.6548  147.0707  162.8786 H       1  UNL1        0.2922
      9 N         142.6458  140.9834  164.9909 N.pl3   1  UNL1       -0.3125
     10 H         143.3623  140.9130  165.6624 H       1  UNL1        0.1522
     11 C         141.9547  139.7462  164.4990 C.ar    1  UNL1        0.0513
     12 C         142.4972  139.0053  163.3130 C.ar    1  UNL1        0.0353
     13 C         141.8061  137.7682  162.8212 C.ar    1  UNL1        0.1001
     14 N         140.5725  137.2720  163.5154 N.ar    1  UNL1       -0.2437
     15 C         140.0300  138.0129  164.7015 C.ar    1  UNL1        0.0833
     16 C         138.7963  137.5167  165.3957 C.ar    1  UNL1        0.0305
     17 C         138.2538  138.2575  166.5818 C.ar    1  UNL1        0.0592
     18 CL        137.0202  137.7613  167.2760 Cl      1  UNL1       -0.0822
     19 C         138.9450  139.4947  167.0736 C.ar    1  UNL1        0.0115
     20 C         140.1786  139.9909  166.3794 C.ar    1  UNL1        0.0036
     21 C         140.7211  139.2500  165.1933 C.ar    1  UNL1        0.0312
     22 C         139.0861  144.0876  162.8247 C.3     1  UNL1        0.1022
     23 N         138.3221  142.9274  162.2589 N.3     1  UNL1       -0.2689
     24 C         139.7708  141.9628  160.3299 C.3     1  UNL1        0.0188
     25 C         138.4816  142.5575  160.8140 C.3     1  UNL1        0.0724
     26 C         137.3986  142.1372  163.1379 C.3     1  UNL1        0.0724
     27 C         137.7334  140.7193  163.4947 C.3     1  UNL1        0.0188
@<TRIPOS>BOND
     1    24    25    1
     2    25    23    1
     3    23    26    1
     4    26    27    1
     5    23    22    1
     6    22     1    1
     7     1     2   ar
     8     2     3   ar
     9     3     9    1
    10     9    11    1
    11    11    12   ar
    12    12    13   ar
    13    13    14   ar
    14    14    15   ar
    15    15    16   ar
    16    16    17   ar
    17    17    18    1
    18    17    19   ar
    19    19    20   ar
    20    20    21   ar
    21     3     4   ar
    22     4     5   ar
    23     5     6   ar
    24     6     7    1
    25     6     1   ar
    26    21    11   ar
    27    21    15   ar
    28     9    10    1
    29     7     8    1
