@<TRIPOS>MOLECULE
*****
 35 39 0 0 0
SMALL
GASTEIGER

@<TRIPOS>ATOM
      1 C         141.9101  143.0567  160.2672 C.3     1  UNL1        0.0730
      2 N         141.2365  143.7903  161.3890 N.3     1  UNL1       -0.2726
      3 C         141.1720  145.2796  161.5553 C.3     1  UNL1        0.0721
      4 C         140.4048  145.5730  162.8104 C.3     1  UNL1        0.0190
      5 C         139.9952  144.2650  163.4198 C.3     1  UNL1        0.0201
      6 C         139.2824  144.8577  164.5990 C.3     1  UNL1        0.0061
      7 C         139.3470  143.3684  164.4327 C.3     1  UNL1        0.0237
      8 C         140.5092  143.1632  162.5413 C.3     1  UNL1        0.0724
      9 C         139.0100  141.9908  164.9215 C.ar    1  UNL1       -0.0225
     10 C         138.1757  141.0773  164.0733 C.ar    1  UNL1       -0.0043
     11 C         137.8387  139.6998  164.5620 C.ar    1  UNL1        0.0035
     12 C         138.3361  139.2358  165.8989 C.ar    1  UNL1        0.0714
     13 C         139.1704  140.1494  166.7471 C.ar    1  UNL1        0.0035
     14 C         139.5074  141.5269  166.2584 C.ar    1  UNL1       -0.0043
     15 C         137.9992  137.8583  166.3877 C.3     1  UNL1        0.4186
     16 F         137.6622  136.4807  166.8765 F       1  UNL1       -0.1659
     17 F         138.9236  137.2690  165.3640 F       1  UNL1       -0.1659
     18 F         137.0747  138.4477  167.4114 F       1  UNL1       -0.1659
     19 C         143.3636  142.7008  160.3699 C.3     1  UNL1        0.0294
     20 C         143.8535  141.3869  159.8372 C.3     1  UNL1        0.0666
     21 S         144.0394  140.2235  160.7655 S.3     1  UNL1       -0.0756
     22 C         145.1843  141.0336  163.7122 C.3     1  UNL1        0.1340
     23 N         143.8019  140.5361  163.4096 N.ar    1  UNL1       -0.2884
     24 C         143.2756  140.1637  162.0552 C.ar    1  UNL1        0.1932
     25 N         141.8516  139.7211  162.2168 N.ar    1  UNL1       -0.1221
     26 N         141.4977  139.8199  163.6711 N.ar    1  UNL1       -0.1282
     27 C         142.7030  140.3236  164.4083 C.ar    1  UNL1        0.1670
     28 C         142.7936  140.5713  165.8850 C.ar    1  UNL1        0.0422
     29 C         142.8948  141.9745  166.4053 C.ar    1  UNL1        0.0219
     30 C         142.9854  142.2222  167.8819 C.ar    1  UNL1        0.0785
     31 N         142.9747  141.0665  168.8382 N.ar    1  UNL1       -0.2922
     32 C         143.0653  141.3142  170.3148 C.3     1  UNL1        0.1336
     33 C         142.8734  139.6633  168.3179 C.ar    1  UNL1        0.2611
     34 O         142.8627  138.5078  169.2743 O.2     1  UNL1       -0.2670
     35 C         142.7829  139.4157  166.8412 C.ar    1  UNL1        0.0638
@<TRIPOS>BOND
     1    22    23    1
     2    23    24   ar
     3    24    21    1
     4    21    20    1
     5    20    19    1
     6    19     1    1
     7     1     2    1
     8     2     3    1
     9     3     4    1
    10     5     4    1
    11     5     6    1
    12     6     7    1
    13     7     9    1
    14     9    10   ar
    15    10    11   ar
    16    11    12   ar
    17    12    15    1
    18    15    16    1
    19    15    17    1
    20    15    18    1
    21    12    13   ar
    22    13    14   ar
    23     5     8    1
    24    24    25   ar
    25    25    26   ar
    26    26    27   ar
    27    27    28    1
    28    28    29   ar
    29    29    30   ar
    30    30    31   ar
    31    31    32    1
    32    31    33   ar
    33    33    34    2
    34    33    35   ar
    35    27    23   ar
    36    35    28   ar
    37     8     2    1
    38     7     5    1
    39    14     9   ar
@<TRIPOS>MOLECULE
*****
 35 39 0 0 0
SMALL
GASTEIGER

@<TRIPOS>ATOM
      1 C         141.8586  143.2605  159.9485 C.3     1  UNL1        0.0730
      2 N         141.0761  143.9791  161.0073 N.3     1  UNL1       -0.2726
      3 C         140.8755  145.4627  161.1012 C.3     1  UNL1        0.0721
      4 C         140.0322  145.7407  162.3101 C.3     1  UNL1        0.0190
      5 C         139.7115  144.4291  162.9634 C.3     1  UNL1        0.0201
      6 C         138.8998  145.0066  164.0847 C.3     1  UNL1        0.0061
      7 C         139.1003  143.5230  163.9908 C.3     1  UNL1        0.0237
      8 C         140.3567  143.3403  162.1582 C.3     1  UNL1        0.0724
      9 C         138.8633  142.1434  164.5297 C.ar    1  UNL1       -0.0225
     10 C         138.0995  141.1413  163.7159 C.ar    1  UNL1       -0.0043
     11 C         137.8624  139.7617  164.2548 C.ar    1  UNL1        0.0035
     12 C         138.3891  139.3842  165.6076 C.ar    1  UNL1        0.0714
     13 C         139.1529  140.3864  166.4215 C.ar    1  UNL1        0.0035
     14 C         139.3900  141.7660  165.8825 C.ar    1  UNL1       -0.0043
     15 C         138.1520  138.0046  166.1465 C.3     1  UNL1        0.4186
     16 F         137.9150  136.6249  166.6855 F       1  UNL1       -0.1659
     17 F         137.3153  138.5797  167.2506 F       1  UNL1       -0.1659
     18 F         138.9888  137.4295  165.0424 F       1  UNL1       -0.1659
     19 C         143.3061  142.9385  160.1743 C.3     1  UNL1        0.0294
     20 C         143.8488  141.5998  159.7698 C.3     1  UNL1        0.0666
     21 S         144.2760  140.6158  160.8181 S.3     1  UNL1       -0.0756
     22 C         145.3151  140.8836  163.9000 C.3     1  UNL1        0.1340
     23 N         143.9195  140.5458  163.4663 N.ar    1  UNL1       -0.2884
     24 C         143.4418  140.4227  162.0498 C.ar    1  UNL1        0.1932
     25 N         141.9836  140.0727  162.0810 N.ar    1  UNL1       -0.1221
     26 N         141.5600  139.9794  163.5169 N.ar    1  UNL1       -0.1282
     27 C         142.7564  140.2718  164.3732 C.ar    1  UNL1        0.1670
     28 C         142.7848  140.2874  165.8728 C.ar    1  UNL1        0.0422
     29 C         142.6992  139.0001  166.6381 C.ar    1  UNL1        0.0219
     30 C         142.7276  139.0158  168.1377 C.ar    1  UNL1        0.0785
     31 N         142.8415  140.3188  168.8721 N.ar    1  UNL1       -0.2922
     32 C         142.8699  140.3345  170.3717 C.3     1  UNL1        0.1336
     33 C         142.9270  141.6061  168.1068 C.ar    1  UNL1        0.2611
     34 O         143.0410  142.9090  168.8413 O.2     1  UNL1       -0.2670
     35 C         142.8987  141.5904  166.6072 C.ar    1  UNL1        0.0638
@<TRIPOS>BOND
     1    22    23    1
     2    23    24   ar
     3    24    21    1
     4    21    20    1
     5    20    19    1
     6    19     1    1
     7     1     2    1
     8     2     3    1
     9     3     4    1
    10     5     4    1
    11     5     6    1
    12     6     7    1
    13     7     9    1
    14     9    10   ar
    15    10    11   ar
    16    11    12   ar
    17    12    15    1
    18    15    16    1
    19    15    17    1
    20    15    18    1
    21    12    13   ar
    22    13    14   ar
    23     5     8    1
    24    24    25   ar
    25    25    26   ar
    26    26    27   ar
    27    27    28    1
    28    28    29   ar
    29    29    30   ar
    30    30    31   ar
    31    31    32    1
    32    31    33   ar
    33    33    34    2
    34    33    35   ar
    35    27    23   ar
    36    35    28   ar
    37     8     2    1
    38     7     5    1
    39    14     9   ar
@<TRIPOS>MOLECULE
*****
 35 39 0 0 0
SMALL
GASTEIGER

@<TRIPOS>ATOM
      1 C         140.9203  143.0217  159.5831 C.3     1  UNL1        0.0730
      2 N         140.7004  143.7547  160.8732 N.3     1  UNL1       -0.2726
      3 C         140.9252  145.2197  161.1043 C.3     1  UNL1        0.0721
      4 C         140.5808  145.5217  162.5327 C.3     1  UNL1        0.0190
      5 C         140.1432  144.2435  163.1843 C.3     1  UNL1        0.0201
      6 C         139.8787  144.8388  164.5354 C.3     1  UNL1        0.0061
      7 C         139.6539  143.3739  164.3043 C.3     1  UNL1        0.0237
      8 C         140.2171  143.1514  162.1587 C.3     1  UNL1        0.0724
      9 C         139.2416  142.0260  164.8175 C.ar    1  UNL1       -0.0225
     10 C         139.6654  141.5830  166.1865 C.ar    1  UNL1       -0.0043
     11 C         139.2532  140.2351  166.6996 C.ar    1  UNL1        0.0035
     12 C         138.4171  139.3304  165.8438 C.ar    1  UNL1        0.0714
     13 C         137.9933  139.7735  164.4748 C.ar    1  UNL1        0.0035
     14 C         138.4056  141.1213  163.9616 C.ar    1  UNL1       -0.0043
     15 C         138.0049  137.9825  166.3570 C.3     1  UNL1        0.4186
     16 F         137.5926  136.6346  166.8701 F       1  UNL1       -0.1659
     17 F         137.3325  138.6343  167.5287 F       1  UNL1       -0.1659
     18 F         138.6772  137.3308  165.1852 F       1  UNL1       -0.1659
     19 C         142.2455  143.1112  158.8861 C.3     1  UNL1        0.0294
     20 C         143.5083  142.7982  159.6328 C.3     1  UNL1        0.0666
     21 S         143.5711  141.5980  160.5303 S.3     1  UNL1       -0.0756
     22 C         141.9895  140.1507  162.9907 C.3     1  UNL1        0.1340
     23 N         143.1409  141.1032  163.1217 N.ar    1  UNL1       -0.2884
     24 C         143.8678  141.7684  161.9908 C.ar    1  UNL1        0.1932
     25 N         144.9437  142.6340  162.5766 N.ar    1  UNL1       -0.1221
     26 N         144.8817  142.5038  164.0697 N.ar    1  UNL1       -0.1282
     27 C         143.7675  141.5577  164.4066 C.ar    1  UNL1        0.1670
     28 C         143.3527  141.1395  165.7861 C.ar    1  UNL1        0.0422
     29 C         143.1350  139.6881  166.0962 C.ar    1  UNL1        0.0219
     30 C         142.7203  139.2699  167.4758 C.ar    1  UNL1        0.0785
     31 N         142.5232  140.3032  168.5452 N.ar    1  UNL1       -0.2922
     32 C         142.1084  139.8850  169.9247 C.3     1  UNL1        0.1336
     33 C         142.7408  141.7546  168.2351 C.ar    1  UNL1        0.2611
     34 O         142.5436  142.7877  169.3045 O.2     1  UNL1       -0.2670
     35 C         143.1556  142.1727  166.8555 C.ar    1  UNL1        0.0638
@<TRIPOS>BOND
     1    22    23    1
     2    23    24   ar
     3    24    21    1
     4    21    20    1
     5    20    19    1
     6    19     1    1
     7     1     2    1
     8     2     3    1
     9     3     4    1
    10     5     4    1
    11     5     6    1
    12     6     7    1
    13     7     9    1
    14     9    10   ar
    15    10    11   ar
    16    11    12   ar
    17    12    15    1
    18    15    16    1
    19    15    17    1
    20    15    18    1
    21    12    13   ar
    22    13    14   ar
    23     5     8    1
    24    24    25   ar
    25    25    26   ar
    26    26    27   ar
    27    27    28    1
    28    28    29   ar
    29    29    30   ar
    30    30    31   ar
    31    31    32    1
    32    31    33   ar
    33    33    34    2
    34    33    35   ar
    35    27    23   ar
    36    35    28   ar
    37     8     2    1
    38     7     5    1
    39    14     9   ar
@<TRIPOS>MOLECULE
*****
 35 39 0 0 0
SMALL
GASTEIGER

@<TRIPOS>ATOM
      1 C         141.4105  142.5524  159.9072 C.3     1  UNL1        0.0730
      2 N         142.2822  141.4884  160.5056 N.3     1  UNL1       -0.2726
      3 C         143.6719  141.1360  160.0646 C.3     1  UNL1        0.0721
      4 C         144.1658  140.0198  160.9365 C.3     1  UNL1        0.0190
      5 C         143.0813  139.6823  161.9164 C.3     1  UNL1        0.0201
      6 C         143.8348  138.5889  162.6139 C.3     1  UNL1        0.0061
      7 C         142.4451  138.9413  163.0549 C.3     1  UNL1        0.0237
      8 C         141.9171  140.5900  161.6500 C.3     1  UNL1        0.0724
      9 C         141.2754  138.7169  163.9667 C.ar    1  UNL1       -0.0225
     10 C         141.2440  139.3644  165.3194 C.ar    1  UNL1       -0.0043
     11 C         140.0743  139.1401  166.2313 C.ar    1  UNL1        0.0035
     12 C         138.9361  138.2682  165.7905 C.ar    1  UNL1        0.0714
     13 C         138.9676  137.6207  164.4378 C.ar    1  UNL1        0.0035
     14 C         140.1372  137.8451  163.5259 C.ar    1  UNL1       -0.0043
     15 C         137.7665  138.0438  166.7023 C.3     1  UNL1        0.4186
     16 F         136.5967  137.8194  167.6143 F       1  UNL1       -0.1659
     17 F         137.7449  139.5064  167.0345 F       1  UNL1       -0.1659
     18 F         137.7881  136.5813  166.3702 F       1  UNL1       -0.1659
     19 C         141.8451  143.9875  159.9457 C.3     1  UNL1        0.0294
     20 C         140.8226  145.0830  159.8799 C.3     1  UNL1        0.0666
     21 S         140.1086  145.5182  161.1252 S.3     1  UNL1       -0.0756
     22 C         142.1993  145.3023  163.6215 C.3     1  UNL1        0.1340
     23 N         140.9567  144.4821  163.4386 N.ar    1  UNL1       -0.2884
     24 C         139.9957  144.5814  162.2912 C.ar    1  UNL1        0.1932
     25 N         138.9021  143.5793  162.5145 N.ar    1  UNL1       -0.1221
     26 N         139.1872  142.8608  163.8000 N.ar    1  UNL1       -0.1282
     27 C         140.4570  143.4187  164.3712 C.ar    1  UNL1        0.1670
     28 C         141.1121  142.9888  165.6502 C.ar    1  UNL1        0.0422
     29 C         142.5750  142.6579  165.6693 C.ar    1  UNL1        0.0219
     30 C         143.2301  142.2279  166.9484 C.ar    1  UNL1        0.0785
     31 N         142.4221  142.1289  168.2084 N.ar    1  UNL1       -0.2922
     32 C         143.0772  141.6989  169.4875 C.3     1  UNL1        0.1336
     33 C         140.9592  142.4597  168.1893 C.ar    1  UNL1        0.2611
     34 O         140.1514  142.3606  169.4493 O.2     1  UNL1       -0.2670
     35 C         140.3042  142.8897  166.9102 C.ar    1  UNL1        0.0638
@<TRIPOS>BOND
     1    22    23    1
     2    23    24   ar
     3    24    21    1
     4    21    20    1
     5    20    19    1
     6    19     1    1
     7     1     2    1
     8     2     3    1
     9     3     4    1
    10     5     4    1
    11     5     6    1
    12     6     7    1
    13     7     9    1
    14     9    10   ar
    15    10    11   ar
    16    11    12   ar
    17    12    15    1
    18    15    16    1
    19    15    17    1
    20    15    18    1
    21    12    13   ar
    22    13    14   ar
    23     5     8    1
    24    24    25   ar
    25    25    26   ar
    26    26    27   ar
    27    27    28    1
    28    28    29   ar
    29    29    30   ar
    30    30    31   ar
    31    31    32    1
    32    31    33   ar
    33    33    34    2
    34    33    35   ar
    35    27    23   ar
    36    35    28   ar
    37     8     2    1
    38     7     5    1
    39    14     9   ar
@<TRIPOS>MOLECULE
*****
 35 39 0 0 0
SMALL
GASTEIGER

@<TRIPOS>ATOM
      1 C         144.1138  140.2504  160.9019 C.3     1  UNL1        0.0730
      2 N         142.7644  139.8234  160.4052 N.3     1  UNL1       -0.2726
      3 C         142.3805  139.6074  158.9713 C.3     1  UNL1        0.0721
      4 C         140.9408  139.1879  158.9351 C.3     1  UNL1        0.0190
      5 C         140.4349  139.1448  160.3466 C.3     1  UNL1        0.0201
      6 C         139.0400  138.7156  160.0001 C.3     1  UNL1        0.0061
      7 C         139.4238  138.9317  161.4340 C.3     1  UNL1        0.0237
      8 C         141.5619  139.5376  161.2551 C.3     1  UNL1        0.0724
      9 C         139.0618  138.9334  162.8896 C.ar    1  UNL1       -0.0225
     10 C         139.2314  137.6866  163.7062 C.ar    1  UNL1       -0.0043
     11 C         138.8693  137.6884  165.1618 C.ar    1  UNL1        0.0035
     12 C         138.3376  138.9369  165.8009 C.ar    1  UNL1        0.0714
     13 C         138.1680  140.1837  164.9843 C.ar    1  UNL1        0.0035
     14 C         138.5301  140.1820  163.5287 C.ar    1  UNL1       -0.0043
     15 C         137.9756  138.9386  167.2565 C.3     1  UNL1        0.4186
     16 F         137.6135  138.9403  168.7122 F       1  UNL1       -0.1659
     17 F         138.9630  140.0410  167.5008 F       1  UNL1       -0.1659
     18 F         136.9882  137.8362  167.0122 F       1  UNL1       -0.1659
     19 C         144.2543  141.5128  161.6998 C.3     1  UNL1        0.0294
     20 C         143.5768  142.7698  161.2406 C.3     1  UNL1        0.0666
     21 S         143.1708  143.8113  162.2407 S.3     1  UNL1       -0.0756
     22 C         144.0754  142.8088  165.2116 C.3     1  UNL1        0.1340
     23 N         142.6652  142.9891  164.7333 N.ar    1  UNL1       -0.2884
     24 C         142.2493  143.4499  163.3678 C.ar    1  UNL1        0.1932
     25 N         140.7503  143.4858  163.3271 N.ar    1  UNL1       -0.1221
     26 N         140.2397  143.0472  164.6676 N.ar    1  UNL1       -0.1282
     27 C         141.4231  142.7402  165.5367 C.ar    1  UNL1        0.1670
     28 C         141.3732  142.2673  166.9594 C.ar    1  UNL1        0.0422
     29 C         140.5197  142.9886  167.9600 C.ar    1  UNL1        0.0219
     30 C         140.4698  142.5157  169.3826 C.ar    1  UNL1        0.0785
     31 N         141.2735  141.3215  169.8046 N.ar    1  UNL1       -0.2922
     32 C         141.2236  140.8486  171.2272 C.3     1  UNL1        0.1336
     33 C         142.1270  140.6002  168.8040 C.ar    1  UNL1        0.2611
     34 O         142.9306  139.4060  169.2260 O.2     1  UNL1       -0.2670
     35 C         142.1768  141.0731  167.3813 C.ar    1  UNL1        0.0638
@<TRIPOS>BOND
     1    22    23    1
     2    23    24   ar
     3    24    21    1
     4    21    20    1
     5    20    19    1
     6    19     1    1
     7     1     2    1
     8     2     3    1
     9     3     4    1
    10     5     4    1
    11     5     6    1
    12     6     7    1
    13     7     9    1
    14     9    10   ar
    15    10    11   ar
    16    11    12   ar
    17    12    15    1
    18    15    16    1
    19    15    17    1
    20    15    18    1
    21    12    13   ar
    22    13    14   ar
    23     5     8    1
    24    24    25   ar
    25    25    26   ar
    26    26    27   ar
    27    27    28    1
    28    28    29   ar
    29    29    30   ar
    30    30    31   ar
    31    31    32    1
    32    31    33   ar
    33    33    34    2
    34    33    35   ar
    35    27    23   ar
    36    35    28   ar
    37     8     2    1
    38     7     5    1
    39    14     9   ar
@<TRIPOS>MOLECULE
*****
 35 39 0 0 0
SMALL
GASTEIGER

@<TRIPOS>ATOM
      1 C         141.0455  137.2660  163.3788 C.3     1  UNL1        0.0730
      2 N         142.1255  138.3010  163.4903 N.3     1  UNL1       -0.2726
      3 C         143.3239  138.4245  162.5967 C.3     1  UNL1        0.0721
      4 C         144.1357  139.5940  163.0691 C.3     1  UNL1        0.0190
      5 C         143.4390  140.1933  164.2547 C.3     1  UNL1        0.0201
      6 C         144.4402  141.2852  164.4895 C.3     1  UNL1        0.0061
      7 C         143.2418  141.1617  165.3831 C.3     1  UNL1        0.0237
      8 C         142.1966  139.3941  164.5150 C.3     1  UNL1        0.0724
      9 C         142.4360  141.6495  166.5505 C.ar    1  UNL1       -0.0225
     10 C         141.1519  142.3892  166.3187 C.ar    1  UNL1       -0.0043
     11 C         140.3461  142.8770  167.4861 C.ar    1  UNL1        0.0035
     12 C         140.8245  142.6250  168.8852 C.ar    1  UNL1        0.0714
     13 C         142.1087  141.8852  169.1170 C.ar    1  UNL1        0.0035
     14 C         142.9144  141.3975  167.9496 C.ar    1  UNL1       -0.0043
     15 C         140.0187  143.1127  170.0526 C.3     1  UNL1        0.4186
     16 F         139.2129  143.6006  171.2201 F       1  UNL1       -0.1659
     17 F         139.3228  141.7860  170.1266 F       1  UNL1       -0.1659
     18 F         140.7146  144.4395  169.9786 F       1  UNL1       -0.1659
     19 C         139.6449  137.5947  163.8035 C.3     1  UNL1        0.0294
     20 C         138.8035  138.5128  162.9673 C.3     1  UNL1        0.0666
     21 S         138.4104  139.8600  163.4967 S.3     1  UNL1       -0.0756
     22 C         140.2691  140.3317  160.8561 C.3     1  UNL1        0.1340
     23 N         139.1999  141.2561  161.3583 N.ar    1  UNL1       -0.2884
     24 C         138.3455  141.0394  162.5720 C.ar    1  UNL1        0.1932
     25 N         137.4149  142.2089  162.6987 N.ar    1  UNL1       -0.1221
     26 N         137.6941  143.1485  161.5633 N.ar    1  UNL1       -0.1282
     27 C         138.7973  142.5597  160.7348 C.ar    1  UNL1        0.1670
     28 C         139.3932  143.1677  159.4998 C.ar    1  UNL1        0.0422
     29 C         138.8938  142.7577  158.1461 C.ar    1  UNL1        0.0219
     30 C         139.4897  143.3657  156.9111 C.ar    1  UNL1        0.0785
     31 N         140.5850  144.3837  157.0299 N.ar    1  UNL1       -0.2922
     32 C         141.1809  144.9917  155.7949 C.3     1  UNL1        0.1336
     33 C         141.0844  144.7937  158.3836 C.ar    1  UNL1        0.2611
     34 O         142.1796  145.8117  158.5023 O.2     1  UNL1       -0.2670
     35 C         140.4884  144.1857  159.6186 C.ar    1  UNL1        0.0638
@<TRIPOS>BOND
     1    22    23    1
     2    23    24   ar
     3    24    21    1
     4    21    20    1
     5    20    19    1
     6    19     1    1
     7     1     2    1
     8     2     3    1
     9     3     4    1
    10     5     4    1
    11     5     6    1
    12     6     7    1
    13     7     9    1
    14     9    10   ar
    15    10    11   ar
    16    11    12   ar
    17    12    15    1
    18    15    16    1
    19    15    17    1
    20    15    18    1
    21    12    13   ar
    22    13    14   ar
    23     5     8    1
    24    24    25   ar
    25    25    26   ar
    26    26    27   ar
    27    27    28    1
    28    28    29   ar
    29    29    30   ar
    30    30    31   ar
    31    31    32    1
    32    31    33   ar
    33    33    34    2
    34    33    35   ar
    35    27    23   ar
    36    35    28   ar
    37     8     2    1
    38     7     5    1
    39    14     9   ar
@<TRIPOS>MOLECULE
*****
 35 39 0 0 0
SMALL
GASTEIGER

@<TRIPOS>ATOM
      1 C         140.8041  143.2732  159.4783 C.3     1  UNL1        0.0730
      2 N         141.6934  142.0653  159.4638 N.3     1  UNL1       -0.2726
      3 C         142.2622  141.4039  158.2436 C.3     1  UNL1        0.0721
      4 C         143.0903  140.2366  158.6926 C.3     1  UNL1        0.0190
      5 C         143.0332  140.1765  160.1903 C.3     1  UNL1        0.0201
      6 C         143.9115  138.9690  160.3325 C.3     1  UNL1        0.0061
      7 C         143.3427  139.6304  161.5527 C.3     1  UNL1        0.0237
      8 C         142.1698  141.3068  160.6670 C.3     1  UNL1        0.0724
      9 C         143.1929  139.6969  163.0437 C.ar    1  UNL1       -0.0225
     10 C         143.6433  140.9183  163.7889 C.ar    1  UNL1       -0.0043
     11 C         143.4935  140.9849  165.2799 C.ar    1  UNL1        0.0035
     12 C         142.8934  139.8300  166.0257 C.ar    1  UNL1        0.0714
     13 C         142.4430  138.6086  165.2804 C.ar    1  UNL1        0.0035
     14 C         142.5928  138.5421  163.7894 C.ar    1  UNL1       -0.0043
     15 C         142.7436  139.8966  167.5167 C.3     1  UNL1        0.4186
     16 F         142.5939  139.9632  169.0078 F       1  UNL1       -0.1659
     17 F         143.1235  138.4492  167.6195 F       1  UNL1       -0.1659
     18 F         142.3638  141.3440  167.4139 F       1  UNL1       -0.1659
     19 C         141.2882  144.5536  160.0919 C.3     1  UNL1        0.0294
     20 C         140.3056  145.6204  160.4747 C.3     1  UNL1        0.0666
     21 S         139.9233  145.8066  161.9131 S.3     1  UNL1       -0.0756
     22 C         138.2896  142.9912  162.1458 C.3     1  UNL1        0.1340
     23 N         139.4356  143.4199  163.0135 N.ar    1  UNL1       -0.2884
     24 C         140.1865  144.7140  162.9066 C.ar    1  UNL1        0.1932
     25 N         141.2469  144.7237  163.9675 N.ar    1  UNL1       -0.1221
     26 N         141.1514  143.4356  164.7301 N.ar    1  UNL1       -0.1282
     27 C         140.0319  142.6298  164.1406 C.ar    1  UNL1        0.1670
     28 C         139.5869  141.2722  164.5978 C.ar    1  UNL1        0.0422
     29 C         139.3812  141.0030  166.0590 C.ar    1  UNL1        0.0219
     30 C         138.9362  139.6455  166.5162 C.ar    1  UNL1        0.0785
     31 N         138.6969  138.5571  165.5121 N.ar    1  UNL1       -0.2922
     32 C         138.2519  137.1996  165.9693 C.3     1  UNL1        0.1336
     33 C         138.9026  138.8263  164.0508 C.ar    1  UNL1        0.2611
     34 O         138.6633  137.7379  163.0468 O.2     1  UNL1       -0.2670
     35 C         139.3476  140.1839  163.5937 C.ar    1  UNL1        0.0638
@<TRIPOS>BOND
     1    22    23    1
     2    23    24   ar
     3    24    21    1
     4    21    20    1
     5    20    19    1
     6    19     1    1
     7     1     2    1
     8     2     3    1
     9     3     4    1
    10     5     4    1
    11     5     6    1
    12     6     7    1
    13     7     9    1
    14     9    10   ar
    15    10    11   ar
    16    11    12   ar
    17    12    15    1
    18    15    16    1
    19    15    17    1
    20    15    18    1
    21    12    13   ar
    22    13    14   ar
    23     5     8    1
    24    24    25   ar
    25    25    26   ar
    26    26    27   ar
    27    27    28    1
    28    28    29   ar
    29    29    30   ar
    30    30    31   ar
    31    31    32    1
    32    31    33   ar
    33    33    34    2
    34    33    35   ar
    35    27    23   ar
    36    35    28   ar
    37     8     2    1
    38     7     5    1
    39    14     9   ar
@<TRIPOS>MOLECULE
*****
 35 39 0 0 0
SMALL
GASTEIGER

@<TRIPOS>ATOM
      1 C         141.5313  141.8860  160.0111 C.3     1  UNL1        0.0730
      2 N         140.4947  140.8303  160.2582 N.3     1  UNL1       -0.2726
      3 C         139.6798  140.1323  159.2100 C.3     1  UNL1        0.0721
      4 C         138.7726  139.1578  159.9009 C.3     1  UNL1        0.0190
      5 C         139.0269  139.2535  161.3761 C.3     1  UNL1        0.0201
      6 C         138.0226  138.2136  161.7761 C.3     1  UNL1        0.0061
      7 C         138.8375  138.9115  162.8243 C.3     1  UNL1        0.0237
      8 C         140.0912  140.2871  161.5969 C.3     1  UNL1        0.0724
      9 C         139.1988  139.1170  164.2655 C.ar    1  UNL1       -0.0225
     10 C         140.6337  139.0458  164.6966 C.ar    1  UNL1       -0.0043
     11 C         140.9949  139.2513  166.1379 C.ar    1  UNL1        0.0035
     12 C         139.9212  139.5280  167.1481 C.ar    1  UNL1        0.0714
     13 C         138.4862  139.5993  166.7170 C.ar    1  UNL1        0.0035
     14 C         138.1250  139.3938  165.2757 C.ar    1  UNL1       -0.0043
     15 C         140.2824  139.7335  168.5893 C.3     1  UNL1        0.4186
     16 F         140.6436  139.9391  170.0307 F       1  UNL1       -0.1659
     17 F         141.7089  139.3870  168.2812 F       1  UNL1       -0.1659
     18 F         138.8559  140.0801  168.8974 F       1  UNL1       -0.1659
     19 C         141.4138  143.2235  160.6799 C.3     1  UNL1        0.0294
     20 C         140.1623  144.0348  160.5199 C.3     1  UNL1        0.0666
     21 S         139.5523  144.7150  161.7095 S.3     1  UNL1       -0.0756
     22 C         141.8309  144.8656  164.0407 C.3     1  UNL1        0.1340
     23 N         140.5540  144.0811  164.1052 N.ar    1  UNL1       -0.2884
     24 C         139.5066  144.0119  163.0337 C.ar    1  UNL1        0.1932
     25 N         138.4055  143.1162  163.5188 N.ar    1  UNL1       -0.1221
     26 N         138.7724  142.6318  164.8902 N.ar    1  UNL1       -0.1282
     27 C         140.1002  143.2281  165.2527 C.ar    1  UNL1        0.1670
     28 C         140.8437  143.0098  166.5371 C.ar    1  UNL1        0.0422
     29 C         142.2477  142.4825  166.5107 C.ar    1  UNL1        0.0219
     30 C         142.9911  142.2641  167.7950 C.ar    1  UNL1        0.0785
     31 N         142.3305  142.5732  169.1058 N.ar    1  UNL1       -0.2922
     32 C         143.0740  142.3549  170.3902 C.3     1  UNL1        0.1336
     33 C         140.9265  143.1006  169.1323 C.ar    1  UNL1        0.2611
     34 O         140.2660  143.4096  170.4430 O.2     1  UNL1       -0.2670
     35 C         140.1831  143.3189  167.8478 C.ar    1  UNL1        0.0638
@<TRIPOS>BOND
     1    22    23    1
     2    23    24   ar
     3    24    21    1
     4    21    20    1
     5    20    19    1
     6    19     1    1
     7     1     2    1
     8     2     3    1
     9     3     4    1
    10     5     4    1
    11     5     6    1
    12     6     7    1
    13     7     9    1
    14     9    10   ar
    15    10    11   ar
    16    11    12   ar
    17    12    15    1
    18    15    16    1
    19    15    17    1
    20    15    18    1
    21    12    13   ar
    22    13    14   ar
    23     5     8    1
    24    24    25   ar
    25    25    26   ar
    26    26    27   ar
    27    27    28    1
    28    28    29   ar
    29    29    30   ar
    30    30    31   ar
    31    31    32    1
    32    31    33   ar
    33    33    34    2
    34    33    35   ar
    35    27    23   ar
    36    35    28   ar
    37     8     2    1
    38     7     5    1
    39    14     9   ar
@<TRIPOS>MOLECULE
*****
 35 39 0 0 0
SMALL
GASTEIGER

@<TRIPOS>ATOM
      1 C         144.0282  142.4572  159.9796 C.3     1  UNL1        0.0730
      2 N         143.3903  141.2034  159.4589 N.3     1  UNL1       -0.2726
      3 C         143.6324  140.5838  158.1145 C.3     1  UNL1        0.0721
      4 C         142.7901  139.3466  158.0159 C.3     1  UNL1        0.0190
      5 C         142.0275  139.2015  159.2994 C.3     1  UNL1        0.0201
      6 C         141.3134  137.9394  158.9157 C.3     1  UNL1        0.0061
      7 C         141.0713  138.5590  160.2602 C.3     1  UNL1        0.0237
      8 C         142.3985  140.3491  160.1913 C.3     1  UNL1        0.0724
      9 C         140.3796  138.5458  161.5911 C.ar    1  UNL1       -0.0225
     10 C         139.1176  139.3322  161.7882 C.ar    1  UNL1       -0.0043
     11 C         138.4258  139.3190  163.1191 C.ar    1  UNL1        0.0035
     12 C         138.9961  138.5193  164.2528 C.ar    1  UNL1        0.0714
     13 C         140.2581  137.7329  164.0557 C.ar    1  UNL1        0.0035
     14 C         140.9499  137.7461  162.7248 C.ar    1  UNL1       -0.0043
     15 C         138.3044  138.5061  165.5837 C.3     1  UNL1        0.4186
     16 F         137.6126  138.4929  166.9147 F       1  UNL1       -0.1659
     17 F         138.5550  137.0318  165.6994 F       1  UNL1       -0.1659
     18 F         138.0537  139.9805  165.4681 F       1  UNL1       -0.1659
     19 C         143.3532  143.2491  161.0600 C.3     1  UNL1        0.0294
     20 C         144.1210  143.6563  162.2826 C.3     1  UNL1        0.0666
     21 S         143.5092  144.6039  163.2714 S.3     1  UNL1       -0.0756
     22 C         143.7989  142.7396  165.9341 C.3     1  UNL1        0.1340
     23 N         142.5189  143.2885  165.3771 N.ar    1  UNL1       -0.2884
     24 C         142.3857  144.1454  164.1532 C.ar    1  UNL1        0.1932
     25 N         140.9318  144.4634  163.9659 N.ar    1  UNL1       -0.1221
     26 N         140.1664  143.8029  165.0740 N.ar    1  UNL1       -0.1282
     27 C         141.1472  143.0768  165.9463 C.ar    1  UNL1        0.1670
     28 C         140.8148  142.2791  167.1723 C.ar    1  UNL1        0.0422
     29 C         140.8089  140.7803  167.1131 C.ar    1  UNL1        0.0219
     30 C         140.4764  139.9826  168.3392 C.ar    1  UNL1        0.0785
     31 N         140.1499  140.6838  169.6244 N.ar    1  UNL1       -0.2922
     32 C         139.8175  139.8861  170.8504 C.3     1  UNL1        0.1336
     33 C         140.1558  142.1826  169.6836 C.ar    1  UNL1        0.2611
     34 O         139.8293  142.8837  170.9688 O.2     1  UNL1       -0.2670
     35 C         140.4883  142.9803  168.4575 C.ar    1  UNL1        0.0638
@<TRIPOS>BOND
     1    22    23    1
     2    23    24   ar
     3    24    21    1
     4    21    20    1
     5    20    19    1
     6    19     1    1
     7     1     2    1
     8     2     3    1
     9     3     4    1
    10     5     4    1
    11     5     6    1
    12     6     7    1
    13     7     9    1
    14     9    10   ar
    15    10    11   ar
    16    11    12   ar
    17    12    15    1
    18    15    16    1
    19    15    17    1
    20    15    18    1
    21    12    13   ar
    22    13    14   ar
    23     5     8    1
    24    24    25   ar
    25    25    26   ar
    26    26    27   ar
    27    27    28    1
    28    28    29   ar
    29    29    30   ar
    30    30    31   ar
    31    31    32    1
    32    31    33   ar
    33    33    34    2
    34    33    35   ar
    35    27    23   ar
    36    35    28   ar
    37     8     2    1
    38     7     5    1
    39    14     9   ar
