@<TRIPOS>MOLECULE
*****
 35 39 0 0 0
SMALL
GASTEIGER

@<TRIPOS>ATOM
      1 C         139.2577  139.9559  163.1036 C.ar    1  UNL1        0.0878
      2 C         138.8093  138.8597  164.0240 C.ar    1  UNL1        0.1543
      3 F         138.2282  137.5973  163.4596 F       1  UNL1       -0.2028
      4 C         138.9421  139.0259  165.5088 C.ar    1  UNL1        0.0356
      5 C         139.5232  140.2884  166.0732 C.ar    1  UNL1        0.0580
      6 C         139.6559  140.4546  167.5581 C.ar    1  UNL1        0.1996
      7 O         139.2075  139.3584  168.4785 O.2     1  UNL1       -0.2864
      8 C         140.2370  141.7170  168.1225 C.ar    1  UNL1        0.0701
      9 C         140.6854  142.8133  167.2020 C.ar    1  UNL1        0.0801
     10 N         140.5527  142.6470  165.7172 N.ar    1  UNL1       -0.3270
     11 C         139.9716  141.3846  165.1528 C.ar    1  UNL1        0.0750
     12 C         139.8389  141.2183  163.6680 C.ar    1  UNL1        0.0890
     13 CL        140.2873  142.3146  162.7475 Cl      1  UNL1       -0.0794
     14 C         138.2824  139.9274  159.3468 C.3     1  UNL1        0.0929
     15 C         139.5592  139.1405  159.3207 C.3     1  UNL1        0.0427
     16 C         140.0800  139.0554  160.7248 C.3     1  UNL1        0.0927
     17 N         139.1250  139.7897  161.6187 N.pl3   1  UNL1       -0.3033
     18 C         138.0141  140.3286  160.7670 C.3     1  UNL1        0.1104
     19 O         138.6771  142.5143  157.8796 O.2     1  UNL1       -0.2750
     20 C         137.6219  141.5489  157.4272 C.2     1  UNL1        0.2245
     21 N         137.4245  140.2555  158.1608 N.am    1  UNL1       -0.3042
     22 H         136.7320  139.6219  157.8639 H       1  UNL1        0.1494
     23 C         136.7640  141.8770  156.2413 C.3     1  UNL1        0.1114
     24 C         135.9092  140.8141  155.6170 C.3     1  UNL1        0.1388
     25 N         134.5398  140.5366  156.1626 N.ar    1  UNL1       -0.2297
     26 C         133.2434  141.0029  155.5697 C.ar    1  UNL1        0.1192
     27 C         132.1288  140.4985  156.4375 C.ar    1  UNL1        0.1441
     28 N         132.7364  139.7203  157.5668 N.ar    1  UNL1       -0.1271
     29 N         134.2265  139.7439  157.3969 N.ar    1  UNL1       -0.0637
     30 C         140.3697  141.8833  169.6073 C.2     1  UNL1        0.0774
     31 O         141.7284  142.0186  170.2284 O.co2   1  UNL1       -0.5444
     32 O         139.1437  141.9142  170.4711 O.co2   1  UNL1       -0.5444
     33 C         141.0011  143.7432  164.7967 C.3     1  UNL1        0.0857
     34 C         142.0934  144.4365  164.0376 C.3     1  UNL1        0.0245
     35 C         140.6856  144.9487  163.9617 C.3     1  UNL1        0.0245
@<TRIPOS>UNITY_ATOM_ATTR
31 1
charge -1
@<TRIPOS>BOND
     1    19    20    2
     2    20    23    1
     3    23    24    1
     4    24    25    1
     5    25    26   ar
     6    26    27   ar
     7    27    28   ar
     8    28    29   ar
     9    20    21   am
    10    21    14    1
    11    14    15    1
    12    15    16    1
    13    16    17    1
    14    17     1    1
    15     1     2   ar
    16     2     3    1
    17     2     4   ar
    18     4     5   ar
    19     5     6   ar
    20     6     7    2
    21     6     8   ar
    22     8    30    1
    23    30    31   ar
    24    30    32   ar
    25     8     9   ar
    26     9    10   ar
    27    10    33    1
    28    33    34    1
    29    34    35    1
    30    10    11   ar
    31    11    12   ar
    32    12    13    1
    33    17    18    1
    34    29    25   ar
    35    18    14    1
    36    12     1   ar
    37    11     5   ar
    38    35    33    1
    39    21    22    1
@<TRIPOS>MOLECULE
*****
 35 39 0 0 0
SMALL
GASTEIGER

@<TRIPOS>ATOM
      1 C         142.6166  140.9297  162.9619 C.ar    1  UNL1        0.0878
      2 C         143.7029  140.8611  161.9299 C.ar    1  UNL1        0.1543
      3 F         144.8372  139.8940  162.0980 F       1  UNL1       -0.2028
      4 C         143.6551  141.7596  160.7298 C.ar    1  UNL1        0.0356
      5 C         142.5208  142.7267  160.5616 C.ar    1  UNL1        0.0580
      6 C         142.4730  143.6253  159.3614 C.ar    1  UNL1        0.1996
      7 O         143.5594  143.5567  158.3295 O.2     1  UNL1       -0.2864
      8 C         141.3388  144.5923  159.1933 C.ar    1  UNL1        0.0701
      9 C         140.2523  144.6608  160.2254 C.ar    1  UNL1        0.0801
     10 N         140.3002  143.7623  161.4255 N.ar    1  UNL1       -0.3270
     11 C         141.4345  142.7953  161.5936 C.ar    1  UNL1        0.0750
     12 C         141.4823  141.8967  162.7938 C.ar    1  UNL1        0.0890
     13 CL        140.3959  141.9653  163.8258 Cl      1  UNL1       -0.0794
     14 C         142.8710  139.2419  166.4480 C.3     1  UNL1        0.0929
     15 C         142.6051  138.0551  165.5700 C.3     1  UNL1        0.0427
     16 C         142.4775  138.5428  164.1573 C.3     1  UNL1        0.0927
     17 N         142.6644  140.0311  164.1621 N.pl3   1  UNL1       -0.3033
     18 C         142.9076  140.4632  165.5778 C.3     1  UNL1        0.1104
     19 O         140.5726  139.8593  168.2745 O.2     1  UNL1       -0.2750
     20 C         141.9168  139.5213  168.8483 C.2     1  UNL1        0.2245
     21 N         143.0659  139.2126  167.9349 N.am    1  UNL1       -0.3042
     22 H         143.9481  138.9908  168.3114 H       1  UNL1        0.1494
     23 C         142.1117  139.4920  170.3352 C.3     1  UNL1        0.1114
     24 C         142.3044  140.7729  171.0918 C.3     1  UNL1        0.1388
     25 N         141.3690  141.9239  170.8682 N.ar    1  UNL1       -0.2297
     26 C         141.4784  142.9503  169.7799 C.ar    1  UNL1        0.1192
     27 C         140.3370  143.9115  169.9329 C.ar    1  UNL1        0.1441
     28 N         139.5223  143.4791  171.1157 N.ar    1  UNL1       -0.1271
     29 N         140.1601  142.2508  171.6938 N.ar    1  UNL1       -0.0637
     30 C         141.2909  145.4908  157.9932 C.2     1  UNL1        0.0774
     31 O         140.0679  145.5183  157.1251 O.co2   1  UNL1       -0.5444
     32 O         142.4660  146.3620  157.6611 O.co2   1  UNL1       -0.5444
     33 C         139.2139  143.8309  162.4575 C.3     1  UNL1        0.0857
     34 C         138.7286  144.2761  163.8052 C.3     1  UNL1        0.0245
     35 C         137.8175  143.5045  162.8973 C.3     1  UNL1        0.0245
@<TRIPOS>UNITY_ATOM_ATTR
31 1
charge -1
@<TRIPOS>BOND
     1    19    20    2
     2    20    23    1
     3    23    24    1
     4    24    25    1
     5    25    26   ar
     6    26    27   ar
     7    27    28   ar
     8    28    29   ar
     9    20    21   am
    10    21    14    1
    11    14    15    1
    12    15    16    1
    13    16    17    1
    14    17     1    1
    15     1     2   ar
    16     2     3    1
    17     2     4   ar
    18     4     5   ar
    19     5     6   ar
    20     6     7    2
    21     6     8   ar
    22     8    30    1
    23    30    31   ar
    24    30    32   ar
    25     8     9   ar
    26     9    10   ar
    27    10    33    1
    28    33    34    1
    29    34    35    1
    30    10    11   ar
    31    11    12   ar
    32    12    13    1
    33    17    18    1
    34    29    25   ar
    35    18    14    1
    36    12     1   ar
    37    11     5   ar
    38    35    33    1
    39    21    22    1
@<TRIPOS>MOLECULE
*****
 35 39 0 0 0
SMALL
GASTEIGER

@<TRIPOS>ATOM
      1 C         139.9198  139.5529  162.9651 C.ar    1  UNL1        0.0878
      2 C         138.7869  138.7328  163.5073 C.ar    1  UNL1        0.1543
      3 F         137.9426  137.9126  162.5776 F       1  UNL1       -0.2028
      4 C         138.4985  138.7328  164.9793 C.ar    1  UNL1        0.0356
      5 C         139.3428  139.5530  165.9090 C.ar    1  UNL1        0.0580
      6 C         139.0543  139.5530  167.3811 C.ar    1  UNL1        0.1996
      7 O         137.9214  138.7329  167.9233 O.2     1  UNL1       -0.2864
      8 C         139.8986  140.3731  168.3108 C.ar    1  UNL1        0.0701
      9 C         141.0315  141.1933  167.7685 C.ar    1  UNL1        0.0801
     10 N         141.3200  141.1932  166.2965 N.ar    1  UNL1       -0.3270
     11 C         140.4756  140.3731  165.3668 C.ar    1  UNL1        0.0750
     12 C         140.7641  140.3730  163.8948 C.ar    1  UNL1        0.0890
     13 CL        141.8970  141.1932  163.3525 Cl      1  UNL1       -0.0794
     14 C         140.9822  138.8823  159.2926 C.3     1  UNL1        0.0929
     15 C         140.3226  140.2233  159.1632 C.3     1  UNL1        0.0427
     16 C         139.8443  140.6377  160.5232 C.3     1  UNL1        0.0927
     17 N         140.2083  139.5529  161.4930 N.pl3   1  UNL1       -0.3033
     18 C         140.9116  138.4680  160.7325 C.3     1  UNL1        0.1104
     19 O         139.2523  137.7063  157.1420 O.2     1  UNL1       -0.2750
     20 C         140.7384  137.5061  157.1024 C.2     1  UNL1        0.2245
     21 N         141.6033  138.0941  158.1777 N.am    1  UNL1       -0.3042
     22 H         142.5787  137.9626  158.1518 H       1  UNL1        0.1494
     23 C         141.3595  136.7178  155.9876 C.3     1  UNL1        0.1114
     24 C         142.5574  135.8557  156.2555 C.3     1  UNL1        0.1388
     25 N         142.4198  134.3620  156.2633 N.ar    1  UNL1       -0.2297
     26 C         141.7368  133.5341  155.2155 C.ar    1  UNL1        0.1192
     27 C         141.8359  132.0944  155.6250 C.ar    1  UNL1        0.1441
     28 N         142.5800  132.0327  156.9259 N.ar    1  UNL1       -0.1271
     29 N         142.9408  133.4341  157.3204 N.ar    1  UNL1       -0.0637
     30 C         139.6101  140.3732  169.7828 C.2     1  UNL1        0.0774
     31 O         138.6052  141.3315  170.3501 O.co2   1  UNL1       -0.5444
     32 O         140.3265  139.4149  170.6875 O.co2   1  UNL1       -0.5444
     33 C         142.4528  142.0133  165.7543 C.3     1  UNL1        0.0857
     34 C         142.9620  143.2930  165.1601 C.3     1  UNL1        0.0245
     35 C         143.9058  142.1542  165.4094 C.3     1  UNL1        0.0245
@<TRIPOS>UNITY_ATOM_ATTR
31 1
charge -1
@<TRIPOS>BOND
     1    19    20    2
     2    20    23    1
     3    23    24    1
     4    24    25    1
     5    25    26   ar
     6    26    27   ar
     7    27    28   ar
     8    28    29   ar
     9    20    21   am
    10    21    14    1
    11    14    15    1
    12    15    16    1
    13    16    17    1
    14    17     1    1
    15     1     2   ar
    16     2     3    1
    17     2     4   ar
    18     4     5   ar
    19     5     6   ar
    20     6     7    2
    21     6     8   ar
    22     8    30    1
    23    30    31   ar
    24    30    32   ar
    25     8     9   ar
    26     9    10   ar
    27    10    33    1
    28    33    34    1
    29    34    35    1
    30    10    11   ar
    31    11    12   ar
    32    12    13    1
    33    17    18    1
    34    29    25   ar
    35    18    14    1
    36    12     1   ar
    37    11     5   ar
    38    35    33    1
    39    21    22    1
@<TRIPOS>MOLECULE
*****
 35 39 0 0 0
SMALL
GASTEIGER

@<TRIPOS>ATOM
      1 C         142.9490  139.7646  164.0683 C.ar    1  UNL1        0.0878
      2 C         143.9618  139.2172  165.0299 C.ar    1  UNL1        0.1543
      3 F         145.2727  138.6945  164.5216 F       1  UNL1       -0.2028
      4 C         143.6637  139.1926  166.4997 C.ar    1  UNL1        0.0356
      5 C         142.3528  139.7153  167.0080 C.ar    1  UNL1        0.0580
      6 C         142.0547  139.6907  168.4779 C.ar    1  UNL1        0.1996
      7 O         143.0675  139.1433  169.4395 O.2     1  UNL1       -0.2864
      8 C         140.7439  140.2134  168.9862 C.ar    1  UNL1        0.0701
      9 C         139.7310  140.7608  168.0245 C.ar    1  UNL1        0.0801
     10 N         140.0292  140.7854  166.5547 N.ar    1  UNL1       -0.3270
     11 C         141.3400  140.2627  166.0464 C.ar    1  UNL1        0.0750
     12 C         141.6382  140.2873  164.5766 C.ar    1  UNL1        0.0890
     13 CL        140.6254  140.8347  163.6149 Cl      1  UNL1       -0.0794
     14 C         143.4479  139.1257  160.2724 C.3     1  UNL1        0.0929
     15 C         143.9636  140.5285  160.4005 C.3     1  UNL1        0.0427
     16 C         143.8395  140.9385  161.8380 C.3     1  UNL1        0.0927
     17 N         143.2471  139.7892  162.5984 N.pl3   1  UNL1       -0.3033
     18 C         143.0051  138.6689  161.6308 C.3     1  UNL1        0.1104
     19 O         140.7988  138.5587  158.9837 O.2     1  UNL1       -0.2750
     20 C         142.0614  138.0376  158.3636 C.2     1  UNL1        0.2245
     21 N         143.3859  138.3211  159.0080 N.am    1  UNL1       -0.3042
     22 H         144.2146  137.9792  158.6010 H       1  UNL1        0.1494
     23 C         141.9994  137.2331  157.0992 C.3     1  UNL1        0.1114
     24 C         143.0495  136.2003  156.8151 C.3     1  UNL1        0.1388
     25 N         142.6519  134.7764  156.5613 N.ar    1  UNL1       -0.2297
     26 C         141.8017  134.2874  155.4264 C.ar    1  UNL1        0.1192
     27 C         141.6590  132.8003  155.5615 C.ar    1  UNL1        0.1441
     28 N         142.4209  132.3704  156.7800 N.ar    1  UNL1       -0.1271
     29 N         143.0346  133.5916  157.3978 N.ar    1  UNL1       -0.0637
     30 C         140.4457  140.1888  170.4560 C.2     1  UNL1        0.0774
     31 O         141.3475  140.9062  171.4163 O.co2   1  UNL1       -0.5444
     32 O         139.2458  139.4467  170.9656 O.co2   1  UNL1       -0.5444
     33 C         139.0164  141.3327  165.5931 C.3     1  UNL1        0.0857
     34 C         138.3966  142.5003  164.8842 C.3     1  UNL1        0.0245
     35 C         137.8820  141.1133  164.6366 C.3     1  UNL1        0.0245
@<TRIPOS>UNITY_ATOM_ATTR
31 1
charge -1
@<TRIPOS>BOND
     1    19    20    2
     2    20    23    1
     3    23    24    1
     4    24    25    1
     5    25    26   ar
     6    26    27   ar
     7    27    28   ar
     8    28    29   ar
     9    20    21   am
    10    21    14    1
    11    14    15    1
    12    15    16    1
    13    16    17    1
    14    17     1    1
    15     1     2   ar
    16     2     3    1
    17     2     4   ar
    18     4     5   ar
    19     5     6   ar
    20     6     7    2
    21     6     8   ar
    22     8    30    1
    23    30    31   ar
    24    30    32   ar
    25     8     9   ar
    26     9    10   ar
    27    10    33    1
    28    33    34    1
    29    34    35    1
    30    10    11   ar
    31    11    12   ar
    32    12    13    1
    33    17    18    1
    34    29    25   ar
    35    18    14    1
    36    12     1   ar
    37    11     5   ar
    38    35    33    1
    39    21    22    1
@<TRIPOS>MOLECULE
*****
 35 39 0 0 0
SMALL
GASTEIGER

@<TRIPOS>ATOM
      1 C         142.9306  141.2327  164.5803 C.ar    1  UNL1        0.0878
      2 C         143.8470  142.1015  165.3898 C.ar    1  UNL1        0.1543
      3 F         145.1195  142.6171  164.7857 F       1  UNL1       -0.2028
      4 C         143.4910  142.4547  166.8035 C.ar    1  UNL1        0.0356
      5 C         142.2185  141.9391  167.4076 C.ar    1  UNL1        0.0580
      6 C         141.8625  142.2924  168.8213 C.ar    1  UNL1        0.1996
      7 O         142.7789  143.1612  169.6308 O.2     1  UNL1       -0.2864
      8 C         140.5900  141.7768  169.4255 C.ar    1  UNL1        0.0701
      9 C         139.6736  140.9079  168.6159 C.ar    1  UNL1        0.0801
     10 N         140.0296  140.5547  167.2022 N.ar    1  UNL1       -0.3270
     11 C         141.3021  141.0703  166.5981 C.ar    1  UNL1        0.0750
     12 C         141.6581  140.7171  165.1845 C.ar    1  UNL1        0.0890
     13 CL        140.7417  139.8482  164.3749 Cl      1  UNL1       -0.0794
     14 C         143.5301  140.9790  160.7538 C.3     1  UNL1        0.0929
     15 C         144.1389  139.6928  161.2285 C.3     1  UNL1        0.0427
     16 C         143.9884  139.6313  162.7197 C.3     1  UNL1        0.0927
     17 N         143.2866  140.8794  163.1666 N.pl3   1  UNL1       -0.3033
     18 C         143.0034  141.7123  161.9516 C.3     1  UNL1        0.1104
     19 O         141.3810  139.9425  158.9353 O.2     1  UNL1       -0.2750
     20 C         142.3857  140.9310  158.4218 C.2     1  UNL1        0.2245
     21 N         143.4603  141.4492  159.3311 N.am    1  UNL1       -0.3042
     22 H         144.1197  142.0979  158.9942 H       1  UNL1        0.1494
     23 C         142.3159  141.4012  156.9992 C.3     1  UNL1        0.1114
     24 C         141.8623  142.7976  156.6922 C.3     1  UNL1        0.1388
     25 N         141.5177  143.7370  157.8097 N.ar    1  UNL1       -0.2297
     26 C         140.1345  144.0874  158.2719 C.ar    1  UNL1        0.1192
     27 C         140.2578  145.0579  159.4091 C.ar    1  UNL1        0.1441
     28 N         141.7172  145.3071  159.6495 N.ar    1  UNL1       -0.1271
     29 N         142.4959  144.4908  158.6611 N.ar    1  UNL1       -0.0637
     30 C         140.2339  142.1300  170.8391 C.2     1  UNL1        0.0774
     31 O         139.3510  143.3101  171.1177 O.co2   1  UNL1       -0.5444
     32 O         140.7608  141.3030  171.9743 O.co2   1  UNL1       -0.5444
     33 C         139.1132  139.6859  166.3928 C.3     1  UNL1        0.0857
     34 C         138.0688  139.5385  165.3262 C.3     1  UNL1        0.0245
     35 C         138.5703  138.3285  166.0572 C.3     1  UNL1        0.0245
@<TRIPOS>UNITY_ATOM_ATTR
31 1
charge -1
@<TRIPOS>BOND
     1    19    20    2
     2    20    23    1
     3    23    24    1
     4    24    25    1
     5    25    26   ar
     6    26    27   ar
     7    27    28   ar
     8    28    29   ar
     9    20    21   am
    10    21    14    1
    11    14    15    1
    12    15    16    1
    13    16    17    1
    14    17     1    1
    15     1     2   ar
    16     2     3    1
    17     2     4   ar
    18     4     5   ar
    19     5     6   ar
    20     6     7    2
    21     6     8   ar
    22     8    30    1
    23    30    31   ar
    24    30    32   ar
    25     8     9   ar
    26     9    10   ar
    27    10    33    1
    28    33    34    1
    29    34    35    1
    30    10    11   ar
    31    11    12   ar
    32    12    13    1
    33    17    18    1
    34    29    25   ar
    35    18    14    1
    36    12     1   ar
    37    11     5   ar
    38    35    33    1
    39    21    22    1
@<TRIPOS>MOLECULE
*****
 35 39 0 0 0
SMALL
GASTEIGER

@<TRIPOS>ATOM
      1 C         143.0663  141.4351  164.6032 C.ar    1  UNL1        0.0878
      2 C         143.9346  142.3168  165.4508 C.ar    1  UNL1        0.1543
      3 F         145.1966  142.8957  164.8831 F       1  UNL1       -0.2028
      4 C         143.5410  142.6197  166.8662 C.ar    1  UNL1        0.0356
      5 C         142.2790  142.0408  167.4339 C.ar    1  UNL1        0.0580
      6 C         141.8854  142.3437  168.8494 C.ar    1  UNL1        0.1996
      7 O         142.7538  143.2254  169.6970 O.2     1  UNL1       -0.2864
      8 C         140.6235  141.7648  169.4171 C.ar    1  UNL1        0.0701
      9 C         139.7551  140.8831  168.5694 C.ar    1  UNL1        0.0801
     10 N         140.1487  140.5802  167.1541 N.ar    1  UNL1       -0.3270
     11 C         141.4107  141.1591  166.5863 C.ar    1  UNL1        0.0750
     12 C         141.8043  140.8562  165.1710 C.ar    1  UNL1        0.0890
     13 CL        140.9360  139.9745  164.3233 Cl      1  UNL1       -0.0794
     14 C         143.9669  141.3872  160.8280 C.3     1  UNL1        0.0929
     15 C         144.1642  139.9452  161.1914 C.3     1  UNL1        0.0427
     16 C         143.8509  139.7877  162.6498 C.3     1  UNL1        0.0927
     17 N         143.4599  141.1322  163.1878 N.pl3   1  UNL1       -0.3033
     18 C         143.5316  142.1207  162.0618 C.3     1  UNL1        0.1104
     19 O         141.6269  141.7574  158.9875 O.2     1  UNL1       -0.2750
     20 C         142.9993  142.1748  158.5490 C.2     1  UNL1        0.2245
     21 N         144.1693  141.9897  159.4693 N.am    1  UNL1       -0.3042
     22 H         145.0701  142.2636  159.1815 H       1  UNL1        0.1494
     23 C         143.2018  142.7773  157.1904 C.3     1  UNL1        0.1114
     24 C         143.9645  142.0233  156.1417 C.3     1  UNL1        0.1388
     25 N         145.4633  142.0795  156.1185 N.ar    1  UNL1       -0.2297
     26 C         146.3457  141.6161  154.9977 C.ar    1  UNL1        0.1192
     27 C         147.7705  141.8592  155.3986 C.ar    1  UNL1        0.1441
     28 N         147.7686  142.4729  156.7673 N.ar    1  UNL1       -0.1271
     29 N         146.3427  142.6091  157.2122 N.ar    1  UNL1       -0.0637
     30 C         140.2298  142.0677  170.8325 C.2     1  UNL1        0.0774
     31 O         139.3783  143.2651  171.1343 O.co2   1  UNL1       -0.5444
     32 O         140.6877  141.1731  171.9461 O.co2   1  UNL1       -0.5444
     33 C         139.2804  139.6985  166.3065 C.3     1  UNL1        0.0857
     34 C         138.0489  139.5029  165.4727 C.3     1  UNL1        0.0245
     35 C         139.0079  138.3669  165.6720 C.3     1  UNL1        0.0245
@<TRIPOS>UNITY_ATOM_ATTR
31 1
charge -1
@<TRIPOS>BOND
     1    19    20    2
     2    20    23    1
     3    23    24    1
     4    24    25    1
     5    25    26   ar
     6    26    27   ar
     7    27    28   ar
     8    28    29   ar
     9    20    21   am
    10    21    14    1
    11    14    15    1
    12    15    16    1
    13    16    17    1
    14    17     1    1
    15     1     2   ar
    16     2     3    1
    17     2     4   ar
    18     4     5   ar
    19     5     6   ar
    20     6     7    2
    21     6     8   ar
    22     8    30    1
    23    30    31   ar
    24    30    32   ar
    25     8     9   ar
    26     9    10   ar
    27    10    33    1
    28    33    34    1
    29    34    35    1
    30    10    11   ar
    31    11    12   ar
    32    12    13    1
    33    17    18    1
    34    29    25   ar
    35    18    14    1
    36    12     1   ar
    37    11     5   ar
    38    35    33    1
    39    21    22    1
@<TRIPOS>MOLECULE
*****
 35 39 0 0 0
SMALL
GASTEIGER

@<TRIPOS>ATOM
      1 C         142.8926  141.6025  164.3576 C.ar    1  UNL1        0.0878
      2 C         143.8934  142.3516  165.1864 C.ar    1  UNL1        0.1543
      3 F         145.1455  142.8816  164.5528 F       1  UNL1       -0.2028
      4 C         143.6423  142.5707  166.6489 C.ar    1  UNL1        0.0356
      5 C         142.3903  142.0407  167.2825 C.ar    1  UNL1        0.0580
      6 C         142.1392  142.2599  168.7451 C.ar    1  UNL1        0.1996
      7 O         143.1401  143.0090  169.5739 O.2     1  UNL1       -0.2864
      8 C         140.8872  141.7299  169.3788 C.ar    1  UNL1        0.0701
      9 C         139.8862  140.9807  168.5498 C.ar    1  UNL1        0.0801
     10 N         140.1374  140.7616  167.0874 N.ar    1  UNL1       -0.3270
     11 C         141.3894  141.2916  166.4537 C.ar    1  UNL1        0.0750
     12 C         141.6405  141.0725  164.9913 C.ar    1  UNL1        0.0890
     13 CL        140.6396  140.3234  164.1623 Cl      1  UNL1       -0.0794
     14 C         143.5230  140.3042  160.7544 C.3     1  UNL1        0.0929
     15 C         143.5371  141.7880  160.5345 C.3     1  UNL1        0.0427
     16 C         143.3027  142.4549  161.8575 C.3     1  UNL1        0.0927
     17 N         143.1437  141.3834  162.8950 N.pl3   1  UNL1       -0.3033
     18 C         143.2798  140.0542  162.2133 C.3     1  UNL1        0.1104
     19 O         141.2017  138.6273  159.8602 O.2     1  UNL1       -0.2750
     20 C         142.5572  138.4163  159.2534 C.2     1  UNL1        0.2245
     21 N         143.7178  139.2548  159.7005 N.am    1  UNL1       -0.3042
     22 H         144.6075  139.1164  159.3023 H       1  UNL1        0.1494
     23 C         142.7521  137.3669  158.1995 C.3     1  UNL1        0.1114
     24 C         142.4771  137.6890  156.7605 C.3     1  UNL1        0.1388
     25 N         141.1259  137.4067  156.1736 N.ar    1  UNL1       -0.2297
     26 C         140.8456  137.0192  154.7520 C.ar    1  UNL1        0.1192
     27 C         139.3641  136.8354  154.6051 C.ar    1  UNL1        0.1441
     28 N         138.7289  137.1093  155.9361 N.ar    1  UNL1       -0.1271
     29 N         139.8177  137.4624  156.9054 N.ar    1  UNL1       -0.0637
     30 C         140.6360  141.9490  170.8412 C.2     1  UNL1        0.0774
     31 O         139.6180  142.9575  171.2846 O.co2   1  UNL1       -0.5444
     32 O         141.4029  141.1595  171.8605 O.co2   1  UNL1       -0.5444
     33 C         139.1365  140.0125  166.2586 C.3     1  UNL1        0.0857
     34 C         138.0207  140.0114  165.2560 C.3     1  UNL1        0.0245
     35 C         138.5186  138.7161  165.8255 C.3     1  UNL1        0.0245
@<TRIPOS>UNITY_ATOM_ATTR
31 1
charge -1
@<TRIPOS>BOND
     1    19    20    2
     2    20    23    1
     3    23    24    1
     4    24    25    1
     5    25    26   ar
     6    26    27   ar
     7    27    28   ar
     8    28    29   ar
     9    20    21   am
    10    21    14    1
    11    14    15    1
    12    15    16    1
    13    16    17    1
    14    17     1    1
    15     1     2   ar
    16     2     3    1
    17     2     4   ar
    18     4     5   ar
    19     5     6   ar
    20     6     7    2
    21     6     8   ar
    22     8    30    1
    23    30    31   ar
    24    30    32   ar
    25     8     9   ar
    26     9    10   ar
    27    10    33    1
    28    33    34    1
    29    34    35    1
    30    10    11   ar
    31    11    12   ar
    32    12    13    1
    33    17    18    1
    34    29    25   ar
    35    18    14    1
    36    12     1   ar
    37    11     5   ar
    38    35    33    1
    39    21    22    1
@<TRIPOS>MOLECULE
*****
 35 39 0 0 0
SMALL
GASTEIGER

@<TRIPOS>ATOM
      1 C         142.8037  141.0155  164.4408 C.ar    1  UNL1        0.0878
      2 C         143.7688  141.8702  165.2075 C.ar    1  UNL1        0.1543
      3 F         145.0312  142.3479  164.5532 F       1  UNL1       -0.2028
      4 C         143.4716  142.2471  166.6286 C.ar    1  UNL1        0.0356
      5 C         142.2092  141.7693  167.2829 C.ar    1  UNL1        0.0580
      6 C         141.9120  142.1463  168.7041 C.ar    1  UNL1        0.1996
      7 O         142.8771  143.0010  169.4709 O.2     1  UNL1       -0.2864
      8 C         140.6496  141.6685  169.3584 C.ar    1  UNL1        0.0701
      9 C         139.6844  140.8138  168.5915 C.ar    1  UNL1        0.0801
     10 N         139.9817  140.4369  167.1704 N.ar    1  UNL1       -0.3270
     11 C         141.2440  140.9147  166.5161 C.ar    1  UNL1        0.0750
     12 C         141.5413  140.5377  165.0951 C.ar    1  UNL1        0.0890
     13 CL        140.5761  139.6830  164.3282 Cl      1  UNL1       -0.0794
     14 C         143.1204  140.6182  160.5927 C.3     1  UNL1        0.0929
     15 C         143.9962  139.4989  161.0727 C.3     1  UNL1        0.0427
     16 C         143.9841  139.5116  162.5726 C.3     1  UNL1        0.0927
     17 N         143.1009  140.6385  163.0196 N.pl3   1  UNL1       -0.3033
     18 C         142.5671  141.3225  161.7959 C.3     1  UNL1        0.1104
     19 O         144.8123  142.6688  159.2026 O.2     1  UNL1       -0.2750
     20 C         143.6920  141.9964  158.4658 C.2     1  UNL1        0.2245
     21 N         142.8460  140.9711  159.1608 N.am    1  UNL1       -0.3042
     22 H         142.1107  140.5298  158.6773 H       1  UNL1        0.1494
     23 C         143.4177  142.3493  157.0339 C.3     1  UNL1        0.1114
     24 C         144.2690  141.7711  155.9426 C.3     1  UNL1        0.1388
     25 N         144.2935  140.2885  155.7163 N.ar    1  UNL1       -0.2297
     26 C         143.1414  139.4486  155.2503 C.ar    1  UNL1        0.1192
     27 C         143.6102  138.0265  155.1623 C.ar    1  UNL1        0.1441
     28 N         145.0521  137.9875  155.5739 N.ar    1  UNL1       -0.1271
     29 N         145.4744  139.3854  155.9163 N.ar    1  UNL1       -0.0637
     30 C         140.3523  142.0454  170.7795 C.2     1  UNL1        0.0774
     31 O         139.6086  143.3131  171.0793 O.co2   1  UNL1       -0.5444
     32 O         140.7988  141.1547  171.9008 O.co2   1  UNL1       -0.5444
     33 C         139.0165  139.5822  166.4037 C.3     1  UNL1        0.0857
     34 C         138.3154  138.2709  166.2066 C.3     1  UNL1        0.0245
     35 C         138.0459  139.4132  165.2726 C.3     1  UNL1        0.0245
@<TRIPOS>UNITY_ATOM_ATTR
31 1
charge -1
@<TRIPOS>BOND
     1    19    20    2
     2    20    23    1
     3    23    24    1
     4    24    25    1
     5    25    26   ar
     6    26    27   ar
     7    27    28   ar
     8    28    29   ar
     9    20    21   am
    10    21    14    1
    11    14    15    1
    12    15    16    1
    13    16    17    1
    14    17     1    1
    15     1     2   ar
    16     2     3    1
    17     2     4   ar
    18     4     5   ar
    19     5     6   ar
    20     6     7    2
    21     6     8   ar
    22     8    30    1
    23    30    31   ar
    24    30    32   ar
    25     8     9   ar
    26     9    10   ar
    27    10    33    1
    28    33    34    1
    29    34    35    1
    30    10    11   ar
    31    11    12   ar
    32    12    13    1
    33    17    18    1
    34    29    25   ar
    35    18    14    1
    36    12     1   ar
    37    11     5   ar
    38    35    33    1
    39    21    22    1
@<TRIPOS>MOLECULE
*****
 35 39 0 0 0
SMALL
GASTEIGER

@<TRIPOS>ATOM
      1 C         140.6810  139.5744  164.3543 C.ar    1  UNL1        0.0878
      2 C         141.4021  138.6719  165.3110 C.ar    1  UNL1        0.1543
      3 F         141.8455  137.3093  164.8673 F       1  UNL1       -0.2028
      4 C         141.6798  139.1319  166.7114 C.ar    1  UNL1        0.0356
      5 C         141.2364  140.4944  167.1551 C.ar    1  UNL1        0.0580
      6 C         141.5142  140.9544  168.5556 C.ar    1  UNL1        0.1996
      7 O         142.2353  140.0519  169.5123 O.2     1  UNL1       -0.2864
      8 C         141.0707  142.3169  168.9993 C.ar    1  UNL1        0.0701
      9 C         140.3496  143.2195  168.0425 C.ar    1  UNL1        0.0801
     10 N         140.0719  142.7595  166.6421 N.ar    1  UNL1       -0.3270
     11 C         140.5153  141.3969  166.1984 C.ar    1  UNL1        0.0750
     12 C         140.2376  140.9369  164.7980 C.ar    1  UNL1        0.0890
     13 CL        139.5164  141.8395  163.8412 Cl      1  UNL1       -0.0794
     14 C         140.5682  138.7959  160.5533 C.3     1  UNL1        0.0929
     15 C         139.3836  138.0173  161.0440 C.3     1  UNL1        0.0427
     16 C         139.2817  138.2142  162.5275 C.3     1  UNL1        0.0927
     17 N         140.4033  139.1144  162.9538 N.pl3   1  UNL1       -0.3033
     18 C         141.1983  139.4739  161.7337 C.3     1  UNL1        0.1104
     19 O         142.9816  137.2439  159.6777 O.2     1  UNL1       -0.2750
     20 C         142.2465  138.1054  158.6941 C.2     1  UNL1        0.2245
     21 N         141.0398  138.8814  159.1320 N.am    1  UNL1       -0.3042
     22 H         140.5573  139.4469  158.4864 H       1  UNL1        0.1494
     23 C         142.7181  138.1910  157.2728 C.3     1  UNL1        0.1114
     24 C         141.8508  138.8353  156.2323 C.3     1  UNL1        0.1388
     25 N         140.6136  138.1375  155.7501 N.ar    1  UNL1       -0.2297
     26 C         140.2665  137.8456  154.3204 C.ar    1  UNL1        0.1192
     27 C         138.9447  137.1368  154.2997 C.ar    1  UNL1        0.1441
     28 N         138.4749  136.9907  155.7167 N.ar    1  UNL1       -0.1271
     29 N         139.5063  137.6091  156.6131 N.ar    1  UNL1       -0.0637
     30 C         141.3484  142.7769  170.3997 C.2     1  UNL1        0.0774
     31 O         140.3529  142.5077  171.4889 O.co2   1  UNL1       -0.5444
     32 O         142.6218  143.5062  170.7110 O.co2   1  UNL1       -0.5444
     33 C         139.3508  143.6620  165.6854 C.3     1  UNL1        0.0857
     34 C         138.0747  144.1242  165.0466 C.3     1  UNL1        0.0245
     35 C         139.3777  144.7630  164.6670 C.3     1  UNL1        0.0245
@<TRIPOS>UNITY_ATOM_ATTR
31 1
charge -1
@<TRIPOS>BOND
     1    19    20    2
     2    20    23    1
     3    23    24    1
     4    24    25    1
     5    25    26   ar
     6    26    27   ar
     7    27    28   ar
     8    28    29   ar
     9    20    21   am
    10    21    14    1
    11    14    15    1
    12    15    16    1
    13    16    17    1
    14    17     1    1
    15     1     2   ar
    16     2     3    1
    17     2     4   ar
    18     4     5   ar
    19     5     6   ar
    20     6     7    2
    21     6     8   ar
    22     8    30    1
    23    30    31   ar
    24    30    32   ar
    25     8     9   ar
    26     9    10   ar
    27    10    33    1
    28    33    34    1
    29    34    35    1
    30    10    11   ar
    31    11    12   ar
    32    12    13    1
    33    17    18    1
    34    29    25   ar
    35    18    14    1
    36    12     1   ar
    37    11     5   ar
    38    35    33    1
    39    21    22    1
