@<TRIPOS>MOLECULE
*****
 40 44 0 0 0
SMALL
GASTEIGER

@<TRIPOS>ATOM
      1 N         140.6001  138.7001  163.6498 N.pl3   1  UNL1       -0.3035
      2 C         139.9957  139.1699  162.3599 C.3     1  UNL1        0.1082
      3 C         140.7726  139.0549  161.0818 C.3     1  UNL1        0.0938
      4 N         142.1538  138.4702  161.0938 N.3     1  UNL1       -0.2695
      5 C         142.7582  138.0004  162.3838 C.3     1  UNL1        0.0938
      6 C         141.9814  138.1153  163.6617 C.3     1  UNL1        0.1082
      7 C         140.9385  141.9425  167.9652 C.ar    1  UNL1       -0.0026
      8 C         141.7153  141.8275  166.6872 C.ar    1  UNL1        0.0946
      9 N         141.3436  140.7850  165.6748 N.ar    1  UNL1       -0.2429
     10 C         140.1950  139.8575  165.9403 C.ar    1  UNL1        0.0945
     11 C         139.8233  138.8151  164.9278 C.ar    1  UNL1        0.0658
     12 C         138.6747  137.8876  165.1933 C.ar    1  UNL1        0.0160
     13 C         137.8978  138.0025  166.4714 C.ar    1  UNL1        0.0014
     14 C         138.2696  139.0450  167.4838 C.ar    1  UNL1        0.0016
     15 C         139.4182  139.9725  167.2183 C.ar    1  UNL1        0.0186
     16 C         139.7899  141.0150  168.2307 C.ar    1  UNL1       -0.0012
     17 C         141.3102  142.9849  168.9777 C.3     1  UNL1        0.0338
     18 C         142.3560  142.6876  170.0110 C.3     1  UNL1        0.0464
     19 O         143.4105  140.3344  170.3283 O.co2   1  UNL1       -0.5492
     20 C         142.3742  141.3540  170.6976 C.2     1  UNL1        0.0507
     21 O         141.3560  141.0401  171.7535 O.co2   1  UNL1       -0.5492
     22 C         142.9307  138.3552  159.8158 C.3     1  UNL1        0.0769
     23 C         143.5500  139.5758  159.2021 C.3     1  UNL1        0.0437
     24 C         143.6870  140.8333  160.0083 C.ar    1  UNL1       -0.0206
     25 C         144.6540  140.8883  161.1537 C.ar    1  UNL1       -0.0011
     26 C         144.7909  142.1457  161.9599 C.ar    1  UNL1        0.0366
     27 C         143.9609  143.3483  161.6208 C.ar    1  UNL1        0.1385
     28 C         142.9939  143.2933  160.4754 C.ar    1  UNL1        0.0366
     29 C         142.8570  142.0358  159.6692 C.ar    1  UNL1       -0.0011
     30 O         144.0979  144.6057  162.4270 O.3     1  UNL1       -0.4754
     31 C         143.2506  144.8100  163.6478 C.3     1  UNL1        0.2068
     32 C         141.8617  145.3603  163.5132 C.3     1  UNL1        0.0646
     33 C         140.7526  144.8131  164.3621 C.3     1  UNL1        0.0759
     34 N         139.7576  143.8583  163.7718 N.3     1  UNL1       -0.2726
     35 C         138.8525  143.1730  164.7522 C.3     1  UNL1        0.0721
     36 C         137.7655  142.1752  164.4821 C.3     1  UNL1        0.0173
     37 C         137.3152  141.6163  163.1650 C.3     1  UNL1        0.0015
     38 C         137.8406  141.9172  161.7926 C.3     1  UNL1        0.0015
     39 C         138.9461  142.8512  161.3984 C.3     1  UNL1        0.0173
     40 C         139.7993  143.7151  162.2793 C.3     1  UNL1        0.0721
@<TRIPOS>UNITY_ATOM_ATTR
19 1
charge -1
@<TRIPOS>BOND
     1    19    20   ar
     2    20    21   ar
     3    20    18    1
     4    18    17    1
     5    17     7    1
     6     7     8   ar
     7     8     9   ar
     8     9    10   ar
     9    10    11   ar
    10    11     1    1
    11     1     2    1
    12     2     3    1
    13     3     4    1
    14     4    22    1
    15    22    23    1
    16    23    24    1
    17    24    25   ar
    18    25    26   ar
    19    26    27   ar
    20    27    30    1
    21    30    31    1
    22    31    32    1
    23    32    33    1
    24    33    34    1
    25    34    35    1
    26    35    36    1
    27    36    37    1
    28    37    38    1
    29    38    39    1
    30    39    40    1
    31    27    28   ar
    32    28    29   ar
    33     4     5    1
    34     5     6    1
    35    11    12   ar
    36    12    13   ar
    37    13    14   ar
    38    14    15   ar
    39    15    16   ar
    40    16     7   ar
    41    15    10   ar
    42     6     1    1
    43    29    24   ar
    44    40    34    1
@<TRIPOS>MOLECULE
*****
 40 44 0 0 0
SMALL
GASTEIGER

@<TRIPOS>ATOM
      1 N         143.8979  140.5941  163.1126 N.pl3   1  UNL1       -0.3035
      2 C         144.4324  141.9856  162.9448 C.3     1  UNL1        0.1082
      3 C         144.6771  142.5344  161.5704 C.3     1  UNL1        0.0938
      4 N         144.3873  141.6917  160.3638 N.3     1  UNL1       -0.2695
      5 C         143.8528  140.3003  160.5315 C.3     1  UNL1        0.0938
      6 C         143.6081  139.7515  161.9059 C.3     1  UNL1        0.1082
      7 C         141.0417  142.2982  167.3773 C.ar    1  UNL1       -0.0026
      8 C         141.2864  142.8470  166.0030 C.ar    1  UNL1        0.0946
      9 N         142.1569  142.0960  165.0395 N.ar    1  UNL1       -0.2429
     10 C         142.7827  140.7962  165.4504 C.ar    1  UNL1        0.0945
     11 C         143.6532  140.0453  164.4869 C.ar    1  UNL1        0.0658
     12 C         144.2790  138.7455  164.8978 C.ar    1  UNL1        0.0160
     13 C         144.0343  138.1966  166.2722 C.ar    1  UNL1        0.0014
     14 C         143.1638  138.9476  167.2357 C.ar    1  UNL1        0.0016
     15 C         142.5380  140.2474  166.8247 C.ar    1  UNL1        0.0186
     16 C         141.6675  140.9984  167.7882 C.ar    1  UNL1       -0.0012
     17 C         140.1712  143.0491  168.3408 C.3     1  UNL1        0.0338
     18 C         140.5783  143.1740  169.7790 C.3     1  UNL1        0.0464
     19 O         140.5684  142.2120  172.1924 O.co2   1  UNL1       -0.5492
     20 C         139.9962  142.2488  170.8063 C.2     1  UNL1        0.0507
     21 O         138.8420  141.3605  170.4474 O.co2   1  UNL1       -0.5492
     22 C         144.6320  142.2406  158.9893 C.3     1  UNL1        0.0769
     23 C         143.5162  142.9026  158.2365 C.3     1  UNL1        0.0437
     24 C         142.1507  142.9981  158.8499 C.ar    1  UNL1       -0.0206
     25 C         141.1265  141.9388  158.5688 C.ar    1  UNL1       -0.0011
     26 C         139.7610  142.0343  159.1822 C.ar    1  UNL1        0.0366
     27 C         139.4197  143.1890  160.0768 C.ar    1  UNL1        0.1385
     28 C         140.4440  144.2483  160.3579 C.ar    1  UNL1        0.0366
     29 C         141.8095  144.1527  159.7445 C.ar    1  UNL1       -0.0011
     30 O         138.0543  143.2845  160.6902 O.3     1  UNL1       -0.4754
     31 C         137.9063  143.3811  162.1798 C.3     1  UNL1        0.2068
     32 C         137.4234  142.1971  162.9639 C.3     1  UNL1        0.0646
     33 C         138.1751  141.7465  164.1812 C.3     1  UNL1        0.0759
     34 N         138.9478  140.4612  164.1524 N.3     1  UNL1       -0.2726
     35 C         139.6033  140.1250  162.8458 C.3     1  UNL1        0.0721
     36 C         140.4358  138.9266  162.4981 C.3     1  UNL1        0.0173
     37 C         140.8183  137.7684  163.3712 C.3     1  UNL1        0.0015
     38 C         140.4628  137.5225  164.8075 C.3     1  UNL1        0.0015
     39 C         139.6371  138.3741  165.7256 C.3     1  UNL1        0.0173
     40 C         138.9628  139.6820  165.4340 C.3     1  UNL1        0.0721
@<TRIPOS>UNITY_ATOM_ATTR
19 1
charge -1
@<TRIPOS>BOND
     1    19    20   ar
     2    20    21   ar
     3    20    18    1
     4    18    17    1
     5    17     7    1
     6     7     8   ar
     7     8     9   ar
     8     9    10   ar
     9    10    11   ar
    10    11     1    1
    11     1     2    1
    12     2     3    1
    13     3     4    1
    14     4    22    1
    15    22    23    1
    16    23    24    1
    17    24    25   ar
    18    25    26   ar
    19    26    27   ar
    20    27    30    1
    21    30    31    1
    22    31    32    1
    23    32    33    1
    24    33    34    1
    25    34    35    1
    26    35    36    1
    27    36    37    1
    28    37    38    1
    29    38    39    1
    30    39    40    1
    31    27    28   ar
    32    28    29   ar
    33     4     5    1
    34     5     6    1
    35    11    12   ar
    36    12    13   ar
    37    13    14   ar
    38    14    15   ar
    39    15    16   ar
    40    16     7   ar
    41    15    10   ar
    42     6     1    1
    43    29    24   ar
    44    40    34    1
@<TRIPOS>MOLECULE
*****
 40 44 0 0 0
SMALL
GASTEIGER

@<TRIPOS>ATOM
      1 N         142.1262  144.0338  162.4071 N.pl3   1  UNL1       -0.3035
      2 C         140.9372  144.9460  162.3411 C.3     1  UNL1        0.1082
      3 C         140.3723  145.3466  161.0105 C.3     1  UNL1        0.0938
      4 N         140.9964  144.8351  159.7460 N.3     1  UNL1       -0.2695
      5 C         142.1854  143.9230  159.8121 C.3     1  UNL1        0.0938
      6 C         142.7503  143.5224  161.1426 C.3     1  UNL1        0.1082
      7 C         140.2967  141.0103  166.5011 C.ar    1  UNL1       -0.0026
      8 C         139.7317  141.4109  165.1706 C.ar    1  UNL1        0.0946
      9 N         140.5299  142.2852  164.2495 N.ar    1  UNL1       -0.2429
     10 C         141.8930  142.7589  164.6588 C.ar    1  UNL1        0.0945
     11 C         142.6911  143.6332  163.7376 C.ar    1  UNL1        0.0658
     12 C         144.0542  144.1069  164.1470 C.ar    1  UNL1        0.0160
     13 C         144.6192  143.7062  165.4776 C.ar    1  UNL1        0.0014
     14 C         143.8210  142.8319  166.3987 C.ar    1  UNL1        0.0016
     15 C         142.4579  142.3583  165.9893 C.ar    1  UNL1        0.0186
     16 C         141.6597  141.4840  166.9105 C.ar    1  UNL1       -0.0012
     17 C         139.4985  140.1360  167.4223 C.3     1  UNL1        0.0338
     18 C         139.8915  140.0099  168.8644 C.3     1  UNL1        0.0464
     19 O         137.8005  139.7026  170.3755 O.co2   1  UNL1       -0.5492
     20 C         138.9781  140.5224  169.9382 C.2     1  UNL1        0.0507
     21 O         139.2424  141.8547  170.5747 O.co2   1  UNL1       -0.5492
     22 C         140.4315  145.2357  158.4154 C.3     1  UNL1        0.0769
     23 C         139.7753  144.2098  157.5396 C.3     1  UNL1        0.0437
     24 C         139.5861  142.8081  158.0388 C.ar    1  UNL1       -0.0206
     25 C         140.5211  141.7218  157.5963 C.ar    1  UNL1       -0.0011
     26 C         140.3318  140.3200  158.0955 C.ar    1  UNL1        0.0366
     27 C         139.2077  140.0045  159.0372 C.ar    1  UNL1        0.1385
     28 C         138.2727  141.0909  159.4797 C.ar    1  UNL1        0.0366
     29 C         138.4620  142.4927  158.9805 C.ar    1  UNL1       -0.0011
     30 O         139.0184  138.6028  159.5364 O.3     1  UNL1       -0.4754
     31 C         138.7945  138.3510  160.9981 C.3     1  UNL1        0.2068
     32 C         139.6564  139.0348  162.0176 C.3     1  UNL1        0.0646
     33 C         140.2778  138.2408  163.1283 C.3     1  UNL1        0.0759
     34 N         141.6206  138.6327  163.6701 N.3     1  UNL1       -0.2726
     35 C         141.9711  138.0654  165.0136 C.3     1  UNL1        0.0721
     36 C         143.2229  138.2654  165.8156 C.3     1  UNL1        0.0173
     37 C         144.4332  139.0821  165.4720 C.3     1  UNL1        0.0015
     38 C         144.6907  139.9005  164.2417 C.3     1  UNL1        0.0015
     39 C         143.8016  140.1044  163.0510 C.3     1  UNL1        0.0173
     40 C         142.4352  139.5402  162.7966 C.3     1  UNL1        0.0721
@<TRIPOS>UNITY_ATOM_ATTR
19 1
charge -1
@<TRIPOS>BOND
     1    19    20   ar
     2    20    21   ar
     3    20    18    1
     4    18    17    1
     5    17     7    1
     6     7     8   ar
     7     8     9   ar
     8     9    10   ar
     9    10    11   ar
    10    11     1    1
    11     1     2    1
    12     2     3    1
    13     3     4    1
    14     4    22    1
    15    22    23    1
    16    23    24    1
    17    24    25   ar
    18    25    26   ar
    19    26    27   ar
    20    27    30    1
    21    30    31    1
    22    31    32    1
    23    32    33    1
    24    33    34    1
    25    34    35    1
    26    35    36    1
    27    36    37    1
    28    37    38    1
    29    38    39    1
    30    39    40    1
    31    27    28   ar
    32    28    29   ar
    33     4     5    1
    34     5     6    1
    35    11    12   ar
    36    12    13   ar
    37    13    14   ar
    38    14    15   ar
    39    15    16   ar
    40    16     7   ar
    41    15    10   ar
    42     6     1    1
    43    29    24   ar
    44    40    34    1
@<TRIPOS>MOLECULE
*****
 40 44 0 0 0
SMALL
GASTEIGER

@<TRIPOS>ATOM
      1 N         140.5853  138.7731  162.9342 N.pl3   1  UNL1       -0.3035
      2 C         139.8510  139.3267  161.7491 C.3     1  UNL1        0.1082
      3 C         140.3871  139.1078  160.3653 C.3     1  UNL1        0.0938
      4 N         141.6574  138.3353  160.1667 N.3     1  UNL1       -0.2695
      5 C         142.3917  137.7816  161.3517 C.3     1  UNL1        0.0938
      6 C         141.8557  138.0005  162.7355 C.3     1  UNL1        0.1082
      7 C         142.3319  141.5447  167.2374 C.ar    1  UNL1       -0.0026
      8 C         142.8679  141.3258  165.8537 C.ar    1  UNL1        0.0946
      9 N         142.1070  140.4749  164.8805 N.ar    1  UNL1       -0.2429
     10 C         140.8101  139.8429  165.2911 C.ar    1  UNL1        0.0945
     11 C         140.0493  138.9920  164.3179 C.ar    1  UNL1        0.0658
     12 C         138.7524  138.3600  164.7284 C.ar    1  UNL1        0.0160
     13 C         138.2163  138.5789  166.1122 C.ar    1  UNL1        0.0014
     14 C         138.9772  139.4298  167.0854 C.ar    1  UNL1        0.0016
     15 C         140.2741  140.0618  166.6748 C.ar    1  UNL1        0.0186
     16 C         141.0350  140.9127  167.6479 C.ar    1  UNL1       -0.0012
     17 C         143.0927  142.3956  168.2105 C.3     1  UNL1        0.0338
     18 C         143.0959  142.0466  169.6693 C.3     1  UNL1        0.0464
     19 O         141.7273  142.0036  171.8773 O.co2   1  UNL1       -0.5492
     20 C         142.1040  142.6856  170.5956 C.2     1  UNL1        0.0507
     21 O         141.4890  144.0068  170.2400 O.co2   1  UNL1       -0.5492
     22 C         142.1935  138.1163  158.7829 C.3     1  UNL1        0.0769
     23 C         143.2458  139.0327  158.2326 C.3     1  UNL1        0.0437
     24 C         143.0637  140.5193  158.3156 C.ar    1  UNL1       -0.0206
     25 C         143.7223  141.2953  159.4174 C.ar    1  UNL1       -0.0011
     26 C         143.5402  142.7818  159.5003 C.ar    1  UNL1        0.0366
     27 C         142.6995  143.4925  158.4814 C.ar    1  UNL1        0.1385
     28 C         142.0408  142.7165  157.3796 C.ar    1  UNL1        0.0366
     29 C         142.2230  141.2299  157.2967 C.ar    1  UNL1       -0.0011
     30 O         142.5173  144.9791  158.5643 O.3     1  UNL1       -0.4754
     31 C         141.1711  145.5525  158.8943 C.3     1  UNL1        0.2068
     32 C         140.5533  145.2918  160.2361 C.3     1  UNL1        0.0646
     33 C         139.7448  144.0485  160.4606 C.3     1  UNL1        0.0759
     34 N         139.3858  143.6291  161.8554 N.3     1  UNL1       -0.2726
     35 C         138.1750  142.7525  161.9801 C.3     1  UNL1        0.0721
     36 C         137.5645  142.1720  163.2212 C.3     1  UNL1        0.0173
     37 C         138.0139  142.3249  164.6441 C.3     1  UNL1        0.0015
     38 C         139.1849  143.0958  165.1773 C.3     1  UNL1        0.0015
     39 C         140.1956  143.9044  164.4194 C.3     1  UNL1        0.0173
     40 C         140.2850  144.1418  162.9410 C.3     1  UNL1        0.0721
@<TRIPOS>UNITY_ATOM_ATTR
19 1
charge -1
@<TRIPOS>BOND
     1    19    20   ar
     2    20    21   ar
     3    20    18    1
     4    18    17    1
     5    17     7    1
     6     7     8   ar
     7     8     9   ar
     8     9    10   ar
     9    10    11   ar
    10    11     1    1
    11     1     2    1
    12     2     3    1
    13     3     4    1
    14     4    22    1
    15    22    23    1
    16    23    24    1
    17    24    25   ar
    18    25    26   ar
    19    26    27   ar
    20    27    30    1
    21    30    31    1
    22    31    32    1
    23    32    33    1
    24    33    34    1
    25    34    35    1
    26    35    36    1
    27    36    37    1
    28    37    38    1
    29    38    39    1
    30    39    40    1
    31    27    28   ar
    32    28    29   ar
    33     4     5    1
    34     5     6    1
    35    11    12   ar
    36    12    13   ar
    37    13    14   ar
    38    14    15   ar
    39    15    16   ar
    40    16     7   ar
    41    15    10   ar
    42     6     1    1
    43    29    24   ar
    44    40    34    1
@<TRIPOS>MOLECULE
*****
 40 44 0 0 0
SMALL
GASTEIGER

@<TRIPOS>ATOM
      1 N         143.8488  140.4585  161.1791 N.pl3   1  UNL1       -0.3035
      2 C         144.2393  141.8815  160.9097 C.3     1  UNL1        0.1082
      3 C         144.2584  142.4004  159.5024 C.3     1  UNL1        0.0938
      4 N         143.8870  141.4964  158.3646 N.3     1  UNL1       -0.2695
      5 C         143.4965  140.0734  158.6339 C.3     1  UNL1        0.0938
      6 C         143.4773  139.5544  160.0412 C.3     1  UNL1        0.1082
      7 C         139.9441  138.6560  164.4585 C.ar    1  UNL1       -0.0026
      8 C         139.9632  139.1750  163.0513 C.ar    1  UNL1        0.0946
      9 N         141.2584  139.6028  162.4272 N.ar    1  UNL1       -0.2429
     10 C         142.5344  139.5117  163.2103 C.ar    1  UNL1        0.0945
     11 C         143.8296  139.9396  162.5863 C.ar    1  UNL1        0.0658
     12 C         145.1057  139.8485  163.3694 C.ar    1  UNL1        0.0160
     13 C         145.0866  139.3295  164.7767 C.ar    1  UNL1        0.0014
     14 C         143.7914  138.9017  165.4008 C.ar    1  UNL1        0.0016
     15 C         142.5153  138.9928  164.6176 C.ar    1  UNL1        0.0186
     16 C         141.2201  138.5649  165.2416 C.ar    1  UNL1       -0.0012
     17 C         138.6489  138.2282  165.0825 C.3     1  UNL1        0.0338
     18 C         137.9394  139.1408  166.0384 C.3     1  UNL1        0.0464
     19 O         136.7110  137.6568  167.7816 O.co2   1  UNL1       -0.5492
     20 C         137.7235  138.7160  167.4607 C.2     1  UNL1        0.0507
     21 O         138.5201  139.3504  168.5621 O.co2   1  UNL1       -0.5492
     22 C         143.9061  142.0153  156.9573 C.3     1  UNL1        0.0769
     23 C         142.8214  142.9363  156.4827 C.3     1  UNL1        0.0437
     24 C         141.9840  143.6841  157.4774 C.ar    1  UNL1       -0.0206
     25 C         140.8429  142.9954  158.1655 C.ar    1  UNL1       -0.0011
     26 C         140.0055  143.7432  159.1602 C.ar    1  UNL1        0.0366
     27 C         140.3092  145.1798  159.4669 C.ar    1  UNL1        0.1385
     28 C         141.4504  145.8685  158.7789 C.ar    1  UNL1        0.0366
     29 C         142.2878  145.1206  157.7841 C.ar    1  UNL1       -0.0011
     30 O         139.4719  145.9276  160.4616 O.3     1  UNL1       -0.4754
     31 C         139.5958  145.6238  161.9253 C.3     1  UNL1        0.2068
     32 C         140.9494  145.4091  162.5348 C.3     1  UNL1        0.0646
     33 C         141.5103  144.0224  162.6465 C.3     1  UNL1        0.0759
     34 N         141.5765  143.3456  163.9836 N.3     1  UNL1       -0.2726
     35 C         140.2593  142.9296  164.5682 C.3     1  UNL1        0.0721
     36 C         139.9914  142.2395  165.8729 C.3     1  UNL1        0.0173
     37 C         140.9746  141.7951  166.9150 C.3     1  UNL1        0.0015
     38 C         142.4683  141.9310  166.9099 C.3     1  UNL1        0.0015
     39 C         143.3480  142.5448  165.8614 C.3     1  UNL1        0.0173
     40 C         142.9511  143.1744  164.5590 C.3     1  UNL1        0.0721
@<TRIPOS>UNITY_ATOM_ATTR
19 1
charge -1
@<TRIPOS>BOND
     1    19    20   ar
     2    20    21   ar
     3    20    18    1
     4    18    17    1
     5    17     7    1
     6     7     8   ar
     7     8     9   ar
     8     9    10   ar
     9    10    11   ar
    10    11     1    1
    11     1     2    1
    12     2     3    1
    13     3     4    1
    14     4    22    1
    15    22    23    1
    16    23    24    1
    17    24    25   ar
    18    25    26   ar
    19    26    27   ar
    20    27    30    1
    21    30    31    1
    22    31    32    1
    23    32    33    1
    24    33    34    1
    25    34    35    1
    26    35    36    1
    27    36    37    1
    28    37    38    1
    29    38    39    1
    30    39    40    1
    31    27    28   ar
    32    28    29   ar
    33     4     5    1
    34     5     6    1
    35    11    12   ar
    36    12    13   ar
    37    13    14   ar
    38    14    15   ar
    39    15    16   ar
    40    16     7   ar
    41    15    10   ar
    42     6     1    1
    43    29    24   ar
    44    40    34    1
@<TRIPOS>MOLECULE
*****
 40 44 0 0 0
SMALL
GASTEIGER

@<TRIPOS>ATOM
      1 N         138.7432  142.4282  161.9151 N.pl3   1  UNL1       -0.3035
      2 C         139.2677  143.1589  160.7147 C.3     1  UNL1        0.1082
      3 C         139.0225  142.6141  159.3387 C.3     1  UNL1        0.0938
      4 N         138.2529  141.3387  159.1632 N.3     1  UNL1       -0.2695
      5 C         137.7283  140.6080  160.3637 C.3     1  UNL1        0.0938
      6 C         137.9735  141.1527  161.7395 C.3     1  UNL1        0.1082
      7 C         141.8936  140.9133  166.0418 C.ar    1  UNL1       -0.0026
      8 C         141.6485  140.3686  164.6659 C.ar    1  UNL1        0.0946
      9 N         140.6800  141.0551  163.7490 N.ar    1  UNL1       -0.2429
     10 C         139.9567  142.2864  164.2079 C.ar    1  UNL1        0.0945
     11 C         138.9883  142.9730  163.2910 C.ar    1  UNL1        0.0658
     12 C         138.2650  144.2043  163.7499 C.ar    1  UNL1        0.0160
     13 C         138.5101  144.7491  165.1259 C.ar    1  UNL1        0.0014
     14 C         139.4785  144.0626  166.0428 C.ar    1  UNL1        0.0016
     15 C         140.2019  142.8312  165.5838 C.ar    1  UNL1        0.0186
     16 C         141.1703  142.1446  166.5007 C.ar    1  UNL1       -0.0012
     17 C         142.8620  140.2268  166.9587 C.3     1  UNL1        0.0338
     18 C         142.4295  139.8162  168.3350 C.3     1  UNL1        0.0464
     19 O         143.4304  139.8193  170.7326 O.co2   1  UNL1       -0.5492
     20 C         142.9285  140.5677  169.5335 C.2     1  UNL1        0.0507
     21 O         142.9256  142.0678  169.5327 O.co2   1  UNL1       -0.5492
     22 C         138.0077  140.7938  157.7873 C.3     1  UNL1        0.0769
     23 C         139.0768  140.0044  157.0918 C.3     1  UNL1        0.0437
     24 C         140.3341  139.6378  157.8230 C.ar    1  UNL1       -0.0206
     25 C         140.3301  138.4960  158.7958 C.ar    1  UNL1       -0.0011
     26 C         141.5874  138.1294  159.5271 C.ar    1  UNL1        0.0366
     27 C         142.8487  138.9045  159.2855 C.ar    1  UNL1        0.1385
     28 C         142.8527  140.0463  158.3128 C.ar    1  UNL1        0.0366
     29 C         141.5953  140.4129  157.5815 C.ar    1  UNL1       -0.0011
     30 O         144.1060  138.5379  160.0168 O.3     1  UNL1       -0.4754
     31 C         144.0919  138.3999  161.5104 C.3     1  UNL1        0.2068
     32 C         144.3512  139.5967  162.3766 C.3     1  UNL1        0.0646
     33 C         144.4657  140.9589  161.7591 C.3     1  UNL1        0.0759
     34 N         144.0289  142.1703  162.5284 N.3     1  UNL1       -0.2726
     35 C         143.0275  143.0512  161.8419 C.3     1  UNL1        0.0721
     36 C         142.4012  144.3199  162.3401 C.3     1  UNL1        0.0173
     37 C         142.6216  145.0211  163.6476 C.3     1  UNL1        0.0015
     38 C         143.5228  144.6267  164.7800 C.3     1  UNL1        0.0015
     39 C         144.4260  143.4338  164.8846 C.3     1  UNL1        0.0173
     40 C         144.6513  142.3406  163.8825 C.3     1  UNL1        0.0721
@<TRIPOS>UNITY_ATOM_ATTR
19 1
charge -1
@<TRIPOS>BOND
     1    19    20   ar
     2    20    21   ar
     3    20    18    1
     4    18    17    1
     5    17     7    1
     6     7     8   ar
     7     8     9   ar
     8     9    10   ar
     9    10    11   ar
    10    11     1    1
    11     1     2    1
    12     2     3    1
    13     3     4    1
    14     4    22    1
    15    22    23    1
    16    23    24    1
    17    24    25   ar
    18    25    26   ar
    19    26    27   ar
    20    27    30    1
    21    30    31    1
    22    31    32    1
    23    32    33    1
    24    33    34    1
    25    34    35    1
    26    35    36    1
    27    36    37    1
    28    37    38    1
    29    38    39    1
    30    39    40    1
    31    27    28   ar
    32    28    29   ar
    33     4     5    1
    34     5     6    1
    35    11    12   ar
    36    12    13   ar
    37    13    14   ar
    38    14    15   ar
    39    15    16   ar
    40    16     7   ar
    41    15    10   ar
    42     6     1    1
    43    29    24   ar
    44    40    34    1
@<TRIPOS>MOLECULE
*****
 40 44 0 0 0
SMALL
GASTEIGER

@<TRIPOS>ATOM
      1 N         140.2424  144.3805  159.6650 N.pl3   1  UNL1       -0.3035
      2 C         139.4050  143.2004  160.0600 C.3     1  UNL1        0.1082
      3 C         138.6288  143.2274  161.3434 C.3     1  UNL1        0.0938
      4 N         138.6901  144.4345  162.2316 N.3     1  UNL1       -0.2695
      5 C         139.5275  145.6147  161.8366 C.3     1  UNL1        0.0938
      6 C         140.3036  145.5877  160.5533 C.3     1  UNL1        0.1082
      7 C         140.0559  147.2871  155.1079 C.ar    1  UNL1       -0.0026
      8 C         139.2797  147.3140  156.3912 C.ar    1  UNL1        0.0946
      9 N         139.6006  146.3362  157.4824 N.ar    1  UNL1       -0.2429
     10 C         140.6976  145.3314  157.2904 C.ar    1  UNL1        0.0945
     11 C         141.0185  144.3536  158.3817 C.ar    1  UNL1        0.0658
     12 C         142.1155  143.3488  158.1897 C.ar    1  UNL1        0.0160
     13 C         142.8916  143.3217  156.9063 C.ar    1  UNL1        0.0014
     14 C         142.5708  144.2996  155.8151 C.ar    1  UNL1        0.0016
     15 C         141.4737  145.3044  156.0071 C.ar    1  UNL1        0.0186
     16 C         141.1528  146.2823  154.9159 C.ar    1  UNL1       -0.0012
     17 C         139.7350  148.2649  154.0166 C.3     1  UNL1        0.0338
     18 C         140.1270  149.7055  154.1613 C.3     1  UNL1        0.0464
     19 O         138.1319  150.5288  155.6075 O.co2   1  UNL1       -0.5492
     20 C         139.0844  150.7393  154.4681 C.2     1  UNL1        0.0507
     21 O         138.9943  151.9838  153.6353 O.co2   1  UNL1       -0.5492
     22 C         137.9140  144.4616  163.5150 C.3     1  UNL1        0.0769
     23 C         138.6312  144.3505  164.8277 C.3     1  UNL1        0.0437
     24 C         139.2697  143.0530  165.2261 C.ar    1  UNL1       -0.0206
     25 C         138.6309  141.7525  164.8381 C.ar    1  UNL1       -0.0011
     26 C         139.2694  140.4550  165.2365 C.ar    1  UNL1        0.0366
     27 C         140.5469  140.4580  166.0228 C.ar    1  UNL1        0.1385
     28 C         141.1857  141.7585  166.4107 C.ar    1  UNL1        0.0366
     29 C         140.5471  143.0561  166.0123 C.ar    1  UNL1       -0.0011
     30 O         141.1854  139.1605  166.4211 O.3     1  UNL1       -0.4754
     31 C         142.5734  138.8336  165.9558 C.3     1  UNL1        0.2068
     32 C         142.8736  138.7558  164.4882 C.3     1  UNL1        0.0646
     33 C         143.9006  139.6665  163.8834 C.3     1  UNL1        0.0759
     34 N         143.6597  141.1465  163.8427 N.3     1  UNL1       -0.2726
     35 C         144.5090  141.9697  164.7651 C.3     1  UNL1        0.0721
     36 C         144.5096  143.4574  164.9576 C.3     1  UNL1        0.0173
     37 C         143.6612  144.4891  164.2752 C.3     1  UNL1        0.0015
     38 C         142.6025  144.2880  163.2318 C.3     1  UNL1        0.0015
     39 C         142.1308  143.0056  162.6130 C.3     1  UNL1        0.0173
     40 C         142.6013  141.6075  162.8849 C.3     1  UNL1        0.0721
@<TRIPOS>UNITY_ATOM_ATTR
19 1
charge -1
@<TRIPOS>BOND
     1    19    20   ar
     2    20    21   ar
     3    20    18    1
     4    18    17    1
     5    17     7    1
     6     7     8   ar
     7     8     9   ar
     8     9    10   ar
     9    10    11   ar
    10    11     1    1
    11     1     2    1
    12     2     3    1
    13     3     4    1
    14     4    22    1
    15    22    23    1
    16    23    24    1
    17    24    25   ar
    18    25    26   ar
    19    26    27   ar
    20    27    30    1
    21    30    31    1
    22    31    32    1
    23    32    33    1
    24    33    34    1
    25    34    35    1
    26    35    36    1
    27    36    37    1
    28    37    38    1
    29    38    39    1
    30    39    40    1
    31    27    28   ar
    32    28    29   ar
    33     4     5    1
    34     5     6    1
    35    11    12   ar
    36    12    13   ar
    37    13    14   ar
    38    14    15   ar
    39    15    16   ar
    40    16     7   ar
    41    15    10   ar
    42     6     1    1
    43    29    24   ar
    44    40    34    1
@<TRIPOS>MOLECULE
*****
 40 44 0 0 0
SMALL
GASTEIGER

@<TRIPOS>ATOM
      1 N         142.8460  139.7016  160.7321 N.pl3   1  UNL1       -0.3035
      2 C         142.4834  139.1946  162.0965 C.3     1  UNL1        0.1082
      3 C         143.1170  139.7997  163.3141 C.3     1  UNL1        0.0938
      4 N         144.1130  140.9115  163.1674 N.3     1  UNL1       -0.2695
      5 C         144.4756  141.4185  161.8030 C.3     1  UNL1        0.0938
      6 C         143.8420  140.8135  160.5853 C.3     1  UNL1        0.1082
      7 C         138.3805  140.8052  157.8875 C.ar    1  UNL1       -0.0026
      8 C         139.0140  141.4101  159.1051 C.ar    1  UNL1        0.0946
      9 N         140.2913  140.8406  159.6474 N.ar    1  UNL1       -0.2429
     10 C         140.9351  139.6661  158.9721 C.ar    1  UNL1        0.0945
     11 C         142.2125  139.0966  159.5145 C.ar    1  UNL1        0.0658
     12 C         142.8563  137.9221  158.8392 C.ar    1  UNL1        0.0160
     13 C         142.2228  137.3171  157.6215 C.ar    1  UNL1        0.0014
     14 C         140.9454  137.8866  157.0791 C.ar    1  UNL1        0.0016
     15 C         140.3016  139.0612  157.7545 C.ar    1  UNL1        0.0186
     16 C         139.0243  139.6307  157.2122 C.ar    1  UNL1       -0.0012
     17 C         137.1032  141.3747  157.3451 C.3     1  UNL1        0.0338
     18 C         136.6596  141.0306  155.9542 C.3     1  UNL1        0.0464
     19 O         134.4916  139.9570  156.9014 O.co2   1  UNL1       -0.5492
     20 C         135.3188  140.3965  155.7299 C.2     1  UNL1        0.0507
     21 O         134.8052  140.2021  154.3340 O.co2   1  UNL1       -0.5492
     22 C         144.7466  141.5166  164.3850 C.3     1  UNL1        0.0769
     23 C         144.4101  142.9224  164.7855 C.3     1  UNL1        0.0437
     24 C         142.9957  143.4122  164.6870 C.ar    1  UNL1       -0.0206
     25 C         141.9132  142.7426  165.4805 C.ar    1  UNL1       -0.0011
     26 C         140.4988  143.2324  165.3820 C.ar    1  UNL1        0.0366
     27 C         140.1670  144.3917  164.4898 C.ar    1  UNL1        0.1385
     28 C         141.2496  145.0612  163.6962 C.ar    1  UNL1        0.0366
     29 C         142.6640  144.5714  163.7948 C.ar    1  UNL1       -0.0011
     30 O         138.7527  144.8815  164.3913 O.3     1  UNL1       -0.4754
     31 C         137.8570  144.3727  163.3009 C.3     1  UNL1        0.2068
     32 C         138.1179  143.0322  162.6804 C.3     1  UNL1        0.0646
     33 C         137.2487  141.8613  163.0313 C.3     1  UNL1        0.0759
     34 N         137.8723  140.5448  163.3891 N.3     1  UNL1       -0.2726
     35 C         138.1945  140.3504  164.8411 C.3     1  UNL1        0.0721
     36 C         138.8153  139.1600  165.5102 C.3     1  UNL1        0.0173
     37 C         139.2672  137.8700  164.8924 C.3     1  UNL1        0.0015
     38 C         139.2099  137.4517  163.4531 C.3     1  UNL1        0.0015
     39 C         138.6867  138.2202  162.2760 C.3     1  UNL1        0.0173
     40 C         138.0914  139.5967  162.2475 C.3     1  UNL1        0.0721
@<TRIPOS>UNITY_ATOM_ATTR
19 1
charge -1
@<TRIPOS>BOND
     1    19    20   ar
     2    20    21   ar
     3    20    18    1
     4    18    17    1
     5    17     7    1
     6     7     8   ar
     7     8     9   ar
     8     9    10   ar
     9    10    11   ar
    10    11     1    1
    11     1     2    1
    12     2     3    1
    13     3     4    1
    14     4    22    1
    15    22    23    1
    16    23    24    1
    17    24    25   ar
    18    25    26   ar
    19    26    27   ar
    20    27    30    1
    21    30    31    1
    22    31    32    1
    23    32    33    1
    24    33    34    1
    25    34    35    1
    26    35    36    1
    27    36    37    1
    28    37    38    1
    29    38    39    1
    30    39    40    1
    31    27    28   ar
    32    28    29   ar
    33     4     5    1
    34     5     6    1
    35    11    12   ar
    36    12    13   ar
    37    13    14   ar
    38    14    15   ar
    39    15    16   ar
    40    16     7   ar
    41    15    10   ar
    42     6     1    1
    43    29    24   ar
    44    40    34    1
@<TRIPOS>MOLECULE
*****
 40 44 0 0 0
SMALL
GASTEIGER

@<TRIPOS>ATOM
      1 N         140.0327  144.6438  159.7947 N.pl3   1  UNL1       -0.3035
      2 C         140.0892  145.8086  160.7381 C.3     1  UNL1        0.1082
      3 C         139.4209  145.7213  162.0783 C.3     1  UNL1        0.0938
      4 N         138.6962  144.4694  162.4749 N.3     1  UNL1       -0.2695
      5 C         138.6397  143.3046  161.5314 C.3     1  UNL1        0.0938
      6 C         139.3079  143.3918  160.1913 C.3     1  UNL1        0.1082
      7 C         144.0751  141.9331  157.4366 C.ar    1  UNL1       -0.0026
      8 C         143.4069  141.8459  158.7767 C.ar    1  UNL1        0.0946
      9 N         142.2822  142.7786  159.1160 N.ar    1  UNL1       -0.2429
     10 C         141.8256  143.7984  158.1153 C.ar    1  UNL1        0.0945
     11 C         140.7009  144.7310  158.4546 C.ar    1  UNL1        0.0658
     12 C         140.2444  145.7509  157.4539 C.ar    1  UNL1        0.0160
     13 C         140.9126  145.8381  156.1137 C.ar    1  UNL1        0.0014
     14 C         142.0374  144.9055  155.7744 C.ar    1  UNL1        0.0016
     15 C         142.4939  143.8856  156.7752 C.ar    1  UNL1        0.0186
     16 C         143.6186  142.9529  156.4359 C.ar    1  UNL1       -0.0012
     17 C         145.1999  141.0005  157.0973 C.3     1  UNL1        0.0338
     18 C         146.1612  141.3525  156.0010 C.3     1  UNL1        0.0464
     19 O         147.5089  142.9222  157.5725 O.co2   1  UNL1       -0.5492
     20 C         147.1342  142.4784  156.1895 C.2     1  UNL1        0.0507
     21 O         147.7326  143.1605  154.9950 O.co2   1  UNL1       -0.5492
     22 C         138.0279  144.3821  163.8150 C.3     1  UNL1        0.0769
     23 C         138.8550  144.2306  165.0571 C.3     1  UNL1        0.0437
     24 C         139.5070  142.9160  165.3682 C.ar    1  UNL1       -0.0206
     25 C         140.7888  142.8801  166.1465 C.ar    1  UNL1       -0.0011
     26 C         141.4407  141.5656  166.4576 C.ar    1  UNL1        0.0366
     27 C         140.8108  140.2868  165.9906 C.ar    1  UNL1        0.1385
     28 C         139.5290  140.3227  165.2124 C.ar    1  UNL1        0.0366
     29 C         138.8771  141.6374  164.9012 C.ar    1  UNL1       -0.0011
     30 O         141.4628  138.9722  166.3017 O.3     1  UNL1       -0.4754
     31 C         142.8115  138.6500  165.7299 C.3     1  UNL1        0.2068
     32 C         143.0933  138.9113  164.2800 C.3     1  UNL1        0.0646
     33 C         144.1374  139.9143  163.8878 C.3     1  UNL1        0.0759
     34 N         143.7983  141.3751  163.8525 N.3     1  UNL1       -0.2726
     35 C         142.6850  141.7626  162.9251 C.3     1  UNL1        0.0721
     36 C         142.1158  143.1259  162.6654 C.3     1  UNL1        0.0173
     37 C         142.5194  144.4384  163.2692 C.3     1  UNL1        0.0015
     38 C         143.5918  144.7118  164.2816 C.3     1  UNL1        0.0015
     39 C         144.5256  143.7402  164.9404 C.3     1  UNL1        0.0173
     40 C         144.6175  142.2552  164.7494 C.3     1  UNL1        0.0721
@<TRIPOS>UNITY_ATOM_ATTR
19 1
charge -1
@<TRIPOS>BOND
     1    19    20   ar
     2    20    21   ar
     3    20    18    1
     4    18    17    1
     5    17     7    1
     6     7     8   ar
     7     8     9   ar
     8     9    10   ar
     9    10    11   ar
    10    11     1    1
    11     1     2    1
    12     2     3    1
    13     3     4    1
    14     4    22    1
    15    22    23    1
    16    23    24    1
    17    24    25   ar
    18    25    26   ar
    19    26    27   ar
    20    27    30    1
    21    30    31    1
    22    31    32    1
    23    32    33    1
    24    33    34    1
    25    34    35    1
    26    35    36    1
    27    36    37    1
    28    37    38    1
    29    38    39    1
    30    39    40    1
    31    27    28   ar
    32    28    29   ar
    33     4     5    1
    34     5     6    1
    35    11    12   ar
    36    12    13   ar
    37    13    14   ar
    38    14    15   ar
    39    15    16   ar
    40    16     7   ar
    41    15    10   ar
    42     6     1    1
    43    29    24   ar
    44    40    34    1
