@<TRIPOS>MOLECULE
*****
 32 34 0 0 0
SMALL
GASTEIGER

@<TRIPOS>ATOM
      1 S         138.5315  139.0530  165.7907 S.O     1  UNL1        0.0356
      2 O         137.4780  138.4659  166.6825 O.co2   1  UNL1       -0.6809
      3 C         138.7483  138.4925  164.4163 C.3     1  UNL1        0.2734
      4 C         140.1330  138.1406  163.9597 C.3     1  UNL1        0.1374
      5 N         143.0108  141.3954  162.7874 N.3     1  UNL1       -0.2706
      6 C         143.4687  140.2708  163.6681 C.3     1  UNL1        0.0736
      7 C         144.8859  140.2312  164.1581 C.3     1  UNL1        0.0188
      8 C         142.5094  139.1859  164.0589 C.3     1  UNL1        0.0884
      9 N         141.0923  139.2255  163.5689 N.3     1  UNL1       -0.2660
     10 C         140.6344  140.3500  162.6882 C.3     1  UNL1        0.0884
     11 C         141.5937  141.4350  162.2974 C.3     1  UNL1        0.0736
     12 C         141.1358  142.5596  161.4167 C.3     1  UNL1        0.0188
     13 C         143.9701  142.4803  162.3966 C.3     1  UNL1        0.1017
     14 C         144.1649  143.8026  164.6245 C.3     1  UNL1        0.0332
     15 C         143.9695  143.7846  163.1374 C.3     1  UNL1        0.1265
     16 O         143.7735  145.0710  162.3911 O.3     1  UNL1       -0.3830
     17 H         143.7998  145.8137  163.0145 H       1  UNL1        0.2104
     18 C         139.3683  140.2006  166.2732 C.3     1  UNL1        0.2470
     19 C         140.2774  140.0221  167.4528 C.ar    1  UNL1        0.0356
     20 C         139.7500  140.2201  168.8430 C.ar    1  UNL1        0.0032
     21 C         140.6591  140.0415  170.0226 C.ar    1  UNL1        0.0295
     22 C         142.0957  139.6649  169.8122 C.ar    1  UNL1        0.1401
     23 F         143.0048  139.4864  170.9918 F       1  UNL1       -0.2042
     24 C         142.6232  139.4669  168.4220 C.ar    1  UNL1        0.0295
     25 C         141.7141  139.6455  167.2423 C.ar    1  UNL1        0.0032
     26 C         139.2960  141.5268  165.5760 C.ar    1  UNL1        0.0356
     27 C         138.0764  141.8913  164.7824 C.ar    1  UNL1        0.0032
     28 C         138.0041  143.2176  164.0852 C.ar    1  UNL1        0.0295
     29 C         139.1513  144.1791  164.1816 C.ar    1  UNL1        0.1401
     30 F         139.0790  145.5052  163.4845 F       1  UNL1       -0.2042
     31 C         140.3708  143.8145  164.9753 C.ar    1  UNL1        0.0295
     32 C         140.4432  142.4884  165.6724 C.ar    1  UNL1        0.0032
@<TRIPOS>UNITY_ATOM_ATTR
1 1
charge 1
2 1
charge -1
@<TRIPOS>BOND
     1    14    15    1
     2    15    16    1
     3    15    13    1
     4    13     5    1
     5     5     6    1
     6     6     7    1
     7     6     8    1
     8     8     9    1
     9     9     4    1
    10     4     3    1
    11     3     1    1
    12     1     2    2
    13     1    18    1
    14    18    19    1
    15    19    20   ar
    16    20    21   ar
    17    21    22   ar
    18    22    23    1
    19    22    24   ar
    20    24    25   ar
    21    18    26    1
    22    26    27   ar
    23    27    28   ar
    24    28    29   ar
    25    29    30    1
    26    29    31   ar
    27    31    32   ar
    28     9    10    1
    29    10    11    1
    30    11    12    1
    31    11     5    1
    32    25    19   ar
    33    32    26   ar
    34    16    17    1
@<TRIPOS>MOLECULE
*****
 32 34 0 0 0
SMALL
GASTEIGER

@<TRIPOS>ATOM
      1 S         138.6197  138.9576  165.7005 S.O     1  UNL1        0.0356
      2 O         137.5552  138.3237  166.5460 O.co2   1  UNL1       -0.6809
      3 C         138.9157  138.4131  164.3345 C.3     1  UNL1        0.2734
      4 C         140.3302  138.1100  163.9382 C.3     1  UNL1        0.1374
      5 N         143.1102  141.4555  162.7852 N.3     1  UNL1       -0.2706
      6 C         143.6183  140.3072  163.6056 C.3     1  UNL1        0.0736
      7 C         145.0532  140.2740  164.0417 C.3     1  UNL1        0.0188
      8 C         142.6917  139.1920  163.9899 C.3     1  UNL1        0.0884
      9 N         141.2569  139.2251  163.5539 N.3     1  UNL1       -0.2660
     10 C         140.7487  140.3735  162.7335 C.3     1  UNL1        0.0884
     11 C         141.6754  141.4886  162.3492 C.3     1  UNL1        0.0736
     12 C         141.1672  142.6370  161.5287 C.3     1  UNL1        0.0188
     13 C         144.0368  142.5707  162.4009 C.3     1  UNL1        0.1017
     14 C         144.1632  143.7984  164.6870 C.3     1  UNL1        0.0332
     15 C         144.0458  143.8448  163.1924 C.3     1  UNL1        0.1265
     16 O         143.9375  145.1654  162.4891 O.3     1  UNL1       -0.3830
     17 H         143.9586  145.8822  163.1423 H       1  UNL1        0.2104
     18 C         139.3883  140.1360  166.2209 C.3     1  UNL1        0.2470
     19 C         139.2555  141.4724  165.5528 C.ar    1  UNL1        0.0356
     20 C         140.3376  142.4994  165.7083 C.ar    1  UNL1        0.0032
     21 C         140.2048  143.8358  165.0401 C.ar    1  UNL1        0.0295
     22 C         138.9900  144.1451  164.2165 C.ar    1  UNL1        0.1401
     23 F         138.8572  145.4815  163.5483 F       1  UNL1       -0.2042
     24 C         137.9078  143.1180  164.0609 C.ar    1  UNL1        0.0295
     25 C         138.0406  141.7816  164.7290 C.ar    1  UNL1        0.0032
     26 C         140.2896  139.9779  167.4094 C.ar    1  UNL1        0.0356
     27 C         141.7336  139.6221  167.2137 C.ar    1  UNL1        0.0032
     28 C         142.6349  139.4640  168.4023 C.ar    1  UNL1        0.0295
     29 C         142.0922  139.6618  169.7866 C.ar    1  UNL1        0.1401
     30 F         142.9935  139.5038  170.9751 F       1  UNL1       -0.2042
     31 C         140.6482  140.0177  169.9824 C.ar    1  UNL1        0.0295
     32 C         139.7469  140.1757  168.7938 C.ar    1  UNL1        0.0032
@<TRIPOS>UNITY_ATOM_ATTR
1 1
charge 1
2 1
charge -1
@<TRIPOS>BOND
     1    14    15    1
     2    15    16    1
     3    15    13    1
     4    13     5    1
     5     5     6    1
     6     6     7    1
     7     6     8    1
     8     8     9    1
     9     9     4    1
    10     4     3    1
    11     3     1    1
    12     1     2    2
    13     1    18    1
    14    18    19    1
    15    19    20   ar
    16    20    21   ar
    17    21    22   ar
    18    22    23    1
    19    22    24   ar
    20    24    25   ar
    21    18    26    1
    22    26    27   ar
    23    27    28   ar
    24    28    29   ar
    25    29    30    1
    26    29    31   ar
    27    31    32   ar
    28     9    10    1
    29    10    11    1
    30    11    12    1
    31    11     5    1
    32    25    19   ar
    33    32    26   ar
    34    16    17    1
@<TRIPOS>MOLECULE
*****
 32 34 0 0 0
SMALL
GASTEIGER

@<TRIPOS>ATOM
      1 S         138.5649  139.0465  165.6721 S.O     1  UNL1        0.0356
      2 O         137.5460  138.3913  166.5567 O.co2   1  UNL1       -0.6809
      3 C         138.7797  138.5436  164.2754 C.3     1  UNL1        0.2734
      4 C         140.1623  138.1995  163.8065 C.3     1  UNL1        0.1374
      5 N         143.0611  141.4759  162.7519 N.3     1  UNL1       -0.2706
      6 C         141.6475  141.5363  162.2540 C.3     1  UNL1        0.0736
      7 C         141.2000  142.6888  161.4046 C.3     1  UNL1        0.0188
      8 C         140.6812  140.4441  162.6056 C.3     1  UNL1        0.0884
      9 N         141.1286  139.2916  163.4550 N.3     1  UNL1       -0.2660
     10 C         142.5422  139.2313  163.9528 C.3     1  UNL1        0.0884
     11 C         143.5085  140.3234  163.6013 C.3     1  UNL1        0.0736
     12 C         144.9222  140.2630  164.0992 C.3     1  UNL1        0.0188
     13 C         144.0273  142.5681  162.4004 C.3     1  UNL1        0.1017
     14 C         144.1741  143.8145  164.6752 C.3     1  UNL1        0.0332
     15 C         144.0296  143.8480  163.1825 C.3     1  UNL1        0.1265
     16 O         143.8873  145.1614  162.4721 O.3     1  UNL1       -0.3830
     17 H         143.9082  145.8833  163.1197 H       1  UNL1        0.2104
     18 C         139.3690  140.2046  166.1843 C.3     1  UNL1        0.2470
     19 C         140.2649  140.0277  167.3742 C.ar    1  UNL1        0.0356
     20 C         141.7067  139.6627  167.1798 C.ar    1  UNL1        0.0032
     21 C         142.6026  139.4858  168.3698 C.ar    1  UNL1        0.0295
     22 C         142.0567  139.6739  169.7542 C.ar    1  UNL1        0.1401
     23 F         142.9527  139.4970  170.9441 F       1  UNL1       -0.2042
     24 C         140.6148  140.0389  169.9487 C.ar    1  UNL1        0.0295
     25 C         139.7189  140.2158  168.7587 C.ar    1  UNL1        0.0032
     26 C         139.2771  141.5395  165.5065 C.ar    1  UNL1        0.0356
     27 C         138.0538  141.8963  164.7152 C.ar    1  UNL1        0.0032
     28 C         137.9620  143.2313  164.0374 C.ar    1  UNL1        0.0295
     29 C         139.0934  144.2095  164.1508 C.ar    1  UNL1        0.1401
     30 F         139.0016  145.5444  163.4730 F       1  UNL1       -0.2042
     31 C         140.3168  143.8527  164.9421 C.ar    1  UNL1        0.0295
     32 C         140.4086  142.5178  165.6199 C.ar    1  UNL1        0.0032
@<TRIPOS>UNITY_ATOM_ATTR
1 1
charge 1
2 1
charge -1
@<TRIPOS>BOND
     1    14    15    1
     2    15    16    1
     3    15    13    1
     4    13     5    1
     5     5     6    1
     6     6     7    1
     7     6     8    1
     8     8     9    1
     9     9     4    1
    10     4     3    1
    11     3     1    1
    12     1     2    2
    13     1    18    1
    14    18    19    1
    15    19    20   ar
    16    20    21   ar
    17    21    22   ar
    18    22    23    1
    19    22    24   ar
    20    24    25   ar
    21    18    26    1
    22    26    27   ar
    23    27    28   ar
    24    28    29   ar
    25    29    30    1
    26    29    31   ar
    27    31    32   ar
    28     9    10    1
    29    10    11    1
    30    11    12    1
    31    11     5    1
    32    25    19   ar
    33    32    26   ar
    34    16    17    1
@<TRIPOS>MOLECULE
*****
 32 34 0 0 0
SMALL
GASTEIGER

@<TRIPOS>ATOM
      1 S         138.5684  139.0691  165.6451 S.O     1  UNL1        0.0356
      2 O         137.5426  138.4166  166.5238 O.co2   1  UNL1       -0.6809
      3 C         138.7895  138.5661  164.2494 C.3     1  UNL1        0.2734
      4 C         140.1743  138.2226  163.7865 C.3     1  UNL1        0.1374
      5 N         143.0825  141.5004  162.7628 N.3     1  UNL1       -0.2706
      6 C         141.6717  141.5647  162.2575 C.3     1  UNL1        0.0736
      7 C         141.2303  142.7216  161.4109 C.3     1  UNL1        0.0188
      8 C         140.7023  140.4721  162.5987 C.3     1  UNL1        0.0884
      9 N         141.1437  139.3152  163.4453 N.3     1  UNL1       -0.2660
     10 C         142.5545  139.2509  163.9506 C.3     1  UNL1        0.0884
     11 C         143.5239  140.3435  163.6094 C.3     1  UNL1        0.0736
     12 C         144.9348  140.2792  164.1148 C.3     1  UNL1        0.0188
     13 C         144.0520  142.5930  162.4216 C.3     1  UNL1        0.1017
     14 C         144.1520  143.8270  164.7057 C.3     1  UNL1        0.0332
     15 C         144.0514  143.8693  163.2097 C.3     1  UNL1        0.1265
     16 O         143.9501  145.1879  162.5017 O.3     1  UNL1       -0.3830
     17 H         143.9635  145.9065  163.1531 H       1  UNL1        0.2104
     18 C         139.3733  140.2245  166.1623 C.3     1  UNL1        0.2470
     19 C         139.2830  141.5621  165.4896 C.ar    1  UNL1        0.0356
     20 C         138.0609  141.9227  164.6981 C.ar    1  UNL1        0.0032
     21 C         137.9707  143.2603  164.0254 C.ar    1  UNL1        0.0295
     22 C         139.1026  144.2374  164.1441 C.ar    1  UNL1        0.1401
     23 F         139.0123  145.5750  163.4714 F       1  UNL1       -0.2042
     24 C         140.3248  143.8768  164.9356 C.ar    1  UNL1        0.0295
     25 C         140.4150  142.5392  165.6083 C.ar    1  UNL1        0.0032
     26 C         140.2682  140.0422  167.3521 C.ar    1  UNL1        0.0356
     27 C         139.7213  140.2241  168.7369 C.ar    1  UNL1        0.0032
     28 C         140.6163  140.0418  169.9268 C.ar    1  UNL1        0.0295
     29 C         142.0583  139.6776  169.7318 C.ar    1  UNL1        0.1401
     30 F         142.9533  139.4954  170.9216 F       1  UNL1       -0.2042
     31 C         142.6053  139.4957  168.3470 C.ar    1  UNL1        0.0295
     32 C         141.7103  139.6780  167.1572 C.ar    1  UNL1        0.0032
@<TRIPOS>UNITY_ATOM_ATTR
1 1
charge 1
2 1
charge -1
@<TRIPOS>BOND
     1    14    15    1
     2    15    16    1
     3    15    13    1
     4    13     5    1
     5     5     6    1
     6     6     7    1
     7     6     8    1
     8     8     9    1
     9     9     4    1
    10     4     3    1
    11     3     1    1
    12     1     2    2
    13     1    18    1
    14    18    19    1
    15    19    20   ar
    16    20    21   ar
    17    21    22   ar
    18    22    23    1
    19    22    24   ar
    20    24    25   ar
    21    18    26    1
    22    26    27   ar
    23    27    28   ar
    24    28    29   ar
    25    29    30    1
    26    29    31   ar
    27    31    32   ar
    28     9    10    1
    29    10    11    1
    30    11    12    1
    31    11     5    1
    32    25    19   ar
    33    32    26   ar
    34    16    17    1
@<TRIPOS>MOLECULE
*****
 32 34 0 0 0
SMALL
GASTEIGER

@<TRIPOS>ATOM
      1 S         138.4641  138.9089  166.0108 S.O     1  UNL1        0.0356
      2 O         137.3337  138.4371  166.8765 O.co2   1  UNL1       -0.6809
      3 C         138.8015  138.1704  164.7494 C.3     1  UNL1        0.2734
      4 C         140.2137  137.7375  164.4888 C.3     1  UNL1        0.1374
      5 N         143.2169  140.6914  162.9059 N.3     1  UNL1       -0.2706
      6 C         143.6529  139.6132  163.8532 C.3     1  UNL1        0.0736
      7 C         145.0900  139.5196  164.2729 C.3     1  UNL1        0.0188
      8 C         142.6518  138.6285  164.3808 C.3     1  UNL1        0.0884
      9 N         141.2148  138.7221  163.9611 N.3     1  UNL1       -0.2660
     10 C         140.7788  139.8003  163.0139 C.3     1  UNL1        0.0884
     11 C         141.7799  140.7849  162.4862 C.3     1  UNL1        0.0736
     12 C         141.3439  141.8632  161.5389 C.3     1  UNL1        0.0188
     13 C         144.2180  141.6760  162.3782 C.3     1  UNL1        0.1017
     14 C         144.1075  143.1739  164.4981 C.3     1  UNL1        0.0332
     15 C         144.3620  143.0203  163.0279 C.3     1  UNL1        0.1265
     16 O         144.7604  144.2111  162.2072 O.3     1  UNL1       -0.3830
     17 H         144.8074  144.9950  162.7765 H       1  UNL1        0.2104
     18 C         139.2571  140.1191  166.4063 C.3     1  UNL1        0.2470
     19 C         140.1688  140.0624  167.5961 C.ar    1  UNL1        0.0356
     20 C         141.6323  139.7930  167.4074 C.ar    1  UNL1        0.0032
     21 C         142.5440  139.7363  168.5972 C.ar    1  UNL1        0.0295
     22 C         141.9922  139.9490  169.9757 C.ar    1  UNL1        0.1401
     23 F         142.9039  139.8923  171.1655 F       1  UNL1       -0.2042
     24 C         140.5287  140.2185  170.1644 C.ar    1  UNL1        0.0295
     25 C         139.6170  140.2752  168.9746 C.ar    1  UNL1        0.0032
     26 C         139.1385  141.3860  165.6120 C.ar    1  UNL1        0.0356
     27 C         140.1719  142.4632  165.7594 C.ar    1  UNL1        0.0032
     28 C         140.0532  143.7302  164.9651 C.ar    1  UNL1        0.0295
     29 C         138.9011  143.9199  164.0235 C.ar    1  UNL1        0.1401
     30 F         138.7825  145.1867  163.2292 F       1  UNL1       -0.2042
     31 C         137.8677  142.8427  163.8761 C.ar    1  UNL1        0.0295
     32 C         137.9864  141.5758  164.6703 C.ar    1  UNL1        0.0032
@<TRIPOS>UNITY_ATOM_ATTR
1 1
charge 1
2 1
charge -1
@<TRIPOS>BOND
     1    14    15    1
     2    15    16    1
     3    15    13    1
     4    13     5    1
     5     5     6    1
     6     6     7    1
     7     6     8    1
     8     8     9    1
     9     9     4    1
    10     4     3    1
    11     3     1    1
    12     1     2    2
    13     1    18    1
    14    18    19    1
    15    19    20   ar
    16    20    21   ar
    17    21    22   ar
    18    22    23    1
    19    22    24   ar
    20    24    25   ar
    21    18    26    1
    22    26    27   ar
    23    27    28   ar
    24    28    29   ar
    25    29    30    1
    26    29    31   ar
    27    31    32   ar
    28     9    10    1
    29    10    11    1
    30    11    12    1
    31    11     5    1
    32    25    19   ar
    33    32    26   ar
    34    16    17    1
@<TRIPOS>MOLECULE
*****
 32 34 0 0 0
SMALL
GASTEIGER

@<TRIPOS>ATOM
      1 S         142.5789  139.1505  166.5917 S.O     1  UNL1        0.0356
      2 O         143.2070  138.7132  167.8817 O.co2   1  UNL1       -0.6809
      3 C         143.3342  139.0080  165.3036 C.3     1  UNL1        0.2734
      4 C         144.1365  140.1592  164.7733 C.3     1  UNL1        0.1374
      5 N         142.0943  143.4769  162.5213 N.3     1  UNL1       -0.2706
      6 C         143.1247  143.8005  163.5621 C.3     1  UNL1        0.0736
      7 C         143.4745  145.2300  163.8523 C.3     1  UNL1        0.0188
      8 C         143.8055  142.6946  164.3128 C.3     1  UNL1        0.0884
      9 N         143.4557  141.2651  164.0226 N.3     1  UNL1       -0.2660
     10 C         142.4253  140.9415  162.9818 C.3     1  UNL1        0.0884
     11 C         141.7445  142.0475  162.2311 C.3     1  UNL1        0.0736
     12 C         140.7140  141.7238  161.1902 C.3     1  UNL1        0.0188
     13 C         141.4135  144.5828  161.7706 C.3     1  UNL1        0.1017
     14 C         139.2938  144.6291  163.2720 C.3     1  UNL1        0.0332
     15 C         140.2924  145.3454  162.4120 C.3     1  UNL1        0.1265
     16 O         140.1698  146.8244  162.1935 O.3     1  UNL1       -0.3830
     17 H         139.3972  147.1594  162.6749 H       1  UNL1        0.2104
     18 C         141.1954  139.7302  166.5897 C.3     1  UNL1        0.2470
     19 C         140.7458  140.6019  167.7247 C.ar    1  UNL1        0.0356
     20 C         141.2667  142.0033  167.8459 C.ar    1  UNL1        0.0032
     21 C         140.8171  142.8749  168.9808 C.ar    1  UNL1        0.0295
     22 C         139.8468  142.3452  169.9946 C.ar    1  UNL1        0.1401
     23 F         139.3973  143.2169  171.1295 F       1  UNL1       -0.2042
     24 C         139.3259  140.9437  169.8734 C.ar    1  UNL1        0.0295
     25 C         139.7755  140.0720  168.7385 C.ar    1  UNL1        0.0032
     26 C         140.2615  139.4382  165.4528 C.ar    1  UNL1        0.0356
     27 C         140.2149  138.0635  164.8546 C.ar    1  UNL1        0.0032
     28 C         139.2809  137.7715  163.7177 C.ar    1  UNL1        0.0295
     29 C         138.3937  138.8544  163.1790 C.ar    1  UNL1        0.1401
     30 F         137.4598  138.5624  162.0421 F       1  UNL1       -0.2042
     31 C         138.4403  140.2291  163.7772 C.ar    1  UNL1        0.0295
     32 C         139.3742  140.5211  164.9141 C.ar    1  UNL1        0.0032
@<TRIPOS>UNITY_ATOM_ATTR
1 1
charge 1
2 1
charge -1
@<TRIPOS>BOND
     1    14    15    1
     2    15    16    1
     3    15    13    1
     4    13     5    1
     5     5     6    1
     6     6     7    1
     7     6     8    1
     8     8     9    1
     9     9     4    1
    10     4     3    1
    11     3     1    1
    12     1     2    2
    13     1    18    1
    14    18    19    1
    15    19    20   ar
    16    20    21   ar
    17    21    22   ar
    18    22    23    1
    19    22    24   ar
    20    24    25   ar
    21    18    26    1
    22    26    27   ar
    23    27    28   ar
    24    28    29   ar
    25    29    30    1
    26    29    31   ar
    27    31    32   ar
    28     9    10    1
    29    10    11    1
    30    11    12    1
    31    11     5    1
    32    25    19   ar
    33    32    26   ar
    34    16    17    1
@<TRIPOS>MOLECULE
*****
 32 34 0 0 0
SMALL
GASTEIGER

@<TRIPOS>ATOM
      1 S         142.5547  139.1689  166.5812 S.O     1  UNL1        0.0356
      2 O         143.2022  138.7781  167.8765 O.co2   1  UNL1       -0.6809
      3 C         143.2942  138.9885  165.2886 C.3     1  UNL1        0.2734
      4 C         144.1111  140.1148  164.7284 C.3     1  UNL1        0.1374
      5 N         142.0838  143.5251  162.6047 N.3     1  UNL1       -0.2706
      6 C         143.1367  143.8037  163.6361 C.3     1  UNL1        0.0736
      7 C         143.5139  145.2190  163.9597 C.3     1  UNL1        0.0188
      8 C         143.8125  142.6669  164.3440 C.3     1  UNL1        0.0884
      9 N         143.4353  141.2516  164.0205 N.3     1  UNL1       -0.2660
     10 C         142.3825  140.9731  162.9891 C.3     1  UNL1        0.0884
     11 C         141.7067  142.1099  162.2812 C.3     1  UNL1        0.0736
     12 C         140.6538  141.8313  161.2497 C.3     1  UNL1        0.0188
     13 C         141.4081  144.6619  161.8968 C.3     1  UNL1        0.1017
     14 C         139.6472  144.8553  163.7973 C.3     1  UNL1        0.0332
     15 C         140.1028  145.1946  162.4090 C.3     1  UNL1        0.1265
     16 O         139.2530  146.0666  161.5330 O.3     1  UNL1       -0.3830
     17 H         138.4500  146.3227  162.0131 H       1  UNL1        0.2104
     18 C         141.1677  139.7400  166.5783 C.3     1  UNL1        0.2470
     19 C         140.2358  139.4411  165.4415 C.ar    1  UNL1        0.0356
     20 C         139.3406  140.5173  164.9027 C.ar    1  UNL1        0.0032
     21 C         138.4088  140.2184  163.7659 C.ar    1  UNL1        0.0295
     22 C         138.3722  138.8433  163.1679 C.ar    1  UNL1        0.1401
     23 F         137.4404  138.5444  162.0310 F       1  UNL1       -0.2042
     24 C         139.2675  137.7670  163.7067 C.ar    1  UNL1        0.0295
     25 C         140.1993  138.0659  164.8435 C.ar    1  UNL1        0.0032
     26 C         140.7125  140.6101  167.7122 C.ar    1  UNL1        0.0356
     27 C         139.7943  140.0560  168.7610 C.ar    1  UNL1        0.0032
     28 C         139.3392  140.9261  169.8949 C.ar    1  UNL1        0.0295
     29 C         139.8022  142.3503  169.9801 C.ar    1  UNL1        0.1401
     30 F         139.3471  143.2204  171.1140 F       1  UNL1       -0.2042
     31 C         140.7204  142.9044  168.9313 C.ar    1  UNL1        0.0295
     32 C         141.1756  142.0344  167.7974 C.ar    1  UNL1        0.0032
@<TRIPOS>UNITY_ATOM_ATTR
1 1
charge 1
2 1
charge -1
@<TRIPOS>BOND
     1    14    15    1
     2    15    16    1
     3    15    13    1
     4    13     5    1
     5     5     6    1
     6     6     7    1
     7     6     8    1
     8     8     9    1
     9     9     4    1
    10     4     3    1
    11     3     1    1
    12     1     2    2
    13     1    18    1
    14    18    19    1
    15    19    20   ar
    16    20    21   ar
    17    21    22   ar
    18    22    23    1
    19    22    24   ar
    20    24    25   ar
    21    18    26    1
    22    26    27   ar
    23    27    28   ar
    24    28    29   ar
    25    29    30    1
    26    29    31   ar
    27    31    32   ar
    28     9    10    1
    29    10    11    1
    30    11    12    1
    31    11     5    1
    32    25    19   ar
    33    32    26   ar
    34    16    17    1
@<TRIPOS>MOLECULE
*****
 32 34 0 0 0
SMALL
GASTEIGER

@<TRIPOS>ATOM
      1 S         142.6599  139.4335  166.6034 S.O     1  UNL1        0.0356
      2 O         143.2102  138.6613  167.7656 O.co2   1  UNL1       -0.6809
      3 C         143.5255  139.7118  165.4104 C.3     1  UNL1        0.2734
      4 C         143.8161  141.1274  165.0085 C.3     1  UNL1        0.1374
      5 N         141.0197  143.2964  162.2290 N.3     1  UNL1       -0.2706
      6 C         141.2813  141.8319  162.0372 C.3     1  UNL1        0.0736
      7 C         140.6108  141.0904  160.9189 C.3     1  UNL1        0.0188
      8 C         142.2135  141.1089  162.9637 C.3     1  UNL1        0.0884
      9 N         142.8840  141.8504  164.0820 N.3     1  UNL1       -0.2660
     10 C         142.6223  143.3149  164.2738 C.3     1  UNL1        0.0884
     11 C         141.6902  144.0379  163.3473 C.3     1  UNL1        0.0736
     12 C         141.4285  145.5024  163.5391 C.3     1  UNL1        0.0188
     13 C         140.0875  144.0194  161.3025 C.3     1  UNL1        0.1017
     14 C         139.9472  144.2495  158.7185 C.3     1  UNL1        0.0332
     15 C         140.6055  144.5997  160.0200 C.3     1  UNL1        0.1265
     16 O         141.7818  145.5304  160.0390 O.3     1  UNL1       -0.3830
     17 H         141.9859  145.8120  159.1335 H       1  UNL1        0.2104
     18 C         141.2438  139.9274  166.6341 C.3     1  UNL1        0.2470
     19 C         140.3082  139.5927  165.5103 C.ar    1  UNL1        0.0356
     20 C         139.2901  140.5970  165.0577 C.ar    1  UNL1        0.0032
     21 C         138.3546  140.2623  163.9340 C.ar    1  UNL1        0.0295
     22 C         138.4372  138.9234  163.2629 C.ar    1  UNL1        0.1401
     23 F         137.5016  138.5887  162.1392 F       1  UNL1       -0.2042
     24 C         139.4554  137.9191  163.7155 C.ar    1  UNL1        0.0295
     25 C         140.3909  138.2537  164.8392 C.ar    1  UNL1        0.0032
     26 C         140.7633  140.7560  167.7884 C.ar    1  UNL1        0.0356
     27 C         139.8050  140.1716  168.7835 C.ar    1  UNL1        0.0032
     28 C         139.3245  141.0003  169.9379 C.ar    1  UNL1        0.0295
     29 C         139.8024  142.4131  170.0972 C.ar    1  UNL1        0.1401
     30 F         139.3219  143.2417  171.2516 F       1  UNL1       -0.2042
     31 C         140.7607  142.9974  169.1021 C.ar    1  UNL1        0.0295
     32 C         141.2412  142.1689  167.9478 C.ar    1  UNL1        0.0032
@<TRIPOS>UNITY_ATOM_ATTR
1 1
charge 1
2 1
charge -1
@<TRIPOS>BOND
     1    14    15    1
     2    15    16    1
     3    15    13    1
     4    13     5    1
     5     5     6    1
     6     6     7    1
     7     6     8    1
     8     8     9    1
     9     9     4    1
    10     4     3    1
    11     3     1    1
    12     1     2    2
    13     1    18    1
    14    18    19    1
    15    19    20   ar
    16    20    21   ar
    17    21    22   ar
    18    22    23    1
    19    22    24   ar
    20    24    25   ar
    21    18    26    1
    22    26    27   ar
    23    27    28   ar
    24    28    29   ar
    25    29    30    1
    26    29    31   ar
    27    31    32   ar
    28     9    10    1
    29    10    11    1
    30    11    12    1
    31    11     5    1
    32    25    19   ar
    33    32    26   ar
    34    16    17    1
@<TRIPOS>MOLECULE
*****
 32 34 0 0 0
SMALL
GASTEIGER

@<TRIPOS>ATOM
      1 S         138.7606  143.9037  165.1872 S.O     1  UNL1        0.0356
      2 O         138.5149  145.3048  165.6631 O.co2   1  UNL1       -0.6809
      3 C         137.7276  143.2018  164.3565 C.3     1  UNL1        0.2734
      4 C         137.9951  142.9199  162.9078 C.3     1  UNL1        0.1374
      5 N         140.6234  139.4601  161.7367 N.3     1  UNL1       -0.2706
      6 C         140.9290  140.8388  161.2311 C.3     1  UNL1        0.0736
      7 C         142.1108  141.0644  160.3352 C.3     1  UNL1        0.0188
      8 C         140.0529  141.9921  161.6215 C.3     1  UNL1        0.0884
      9 N         138.8712  141.7666  162.5174 N.3     1  UNL1       -0.2660
     10 C         138.5656  140.3879  163.0229 C.3     1  UNL1        0.0884
     11 C         139.4417  139.2346  162.6326 C.3     1  UNL1        0.0736
     12 C         139.1361  137.8558  163.1381 C.3     1  UNL1        0.0188
     13 C         141.4996  138.3068  161.3463 C.3     1  UNL1        0.1017
     14 C         142.9939  138.5912  163.4525 C.3     1  UNL1        0.0332
     15 C         142.8021  138.0810  162.0550 C.3     1  UNL1        0.1265
     16 O         143.9129  137.3449  161.3663 O.3     1  UNL1       -0.3830
     17 H         144.6784  137.2863  161.9592 H       1  UNL1        0.2104
     18 C         140.0394  143.2045  165.5420 C.3     1  UNL1        0.2470
     19 C         140.0944  142.3043  166.7406 C.ar    1  UNL1        0.0356
     20 C         140.6253  142.8227  168.0442 C.ar    1  UNL1        0.0032
     21 C         140.6802  141.9224  169.2428 C.ar    1  UNL1        0.0295
     22 C         140.2043  140.5039  169.1377 C.ar    1  UNL1        0.1401
     23 F         140.2592  139.6036  170.3363 F       1  UNL1       -0.2042
     24 C         139.6734  139.9854  167.8341 C.ar    1  UNL1        0.0295
     25 C         139.6184  140.8857  166.6355 C.ar    1  UNL1        0.0032
     26 C         141.2632  143.4055  164.6983 C.ar    1  UNL1        0.0356
     27 C         141.4658  144.6994  163.9670 C.ar    1  UNL1        0.0032
     28 C         142.6896  144.9004  163.1232 C.ar    1  UNL1        0.0295
     29 C         143.7108  143.8076  163.0108 C.ar    1  UNL1        0.1401
     30 F         144.9346  144.0086  162.1670 F       1  UNL1       -0.2042
     31 C         143.5083  142.5137  163.7421 C.ar    1  UNL1        0.0295
     32 C         142.2845  142.3126  164.5858 C.ar    1  UNL1        0.0032
@<TRIPOS>UNITY_ATOM_ATTR
1 1
charge 1
2 1
charge -1
@<TRIPOS>BOND
     1    14    15    1
     2    15    16    1
     3    15    13    1
     4    13     5    1
     5     5     6    1
     6     6     7    1
     7     6     8    1
     8     8     9    1
     9     9     4    1
    10     4     3    1
    11     3     1    1
    12     1     2    2
    13     1    18    1
    14    18    19    1
    15    19    20   ar
    16    20    21   ar
    17    21    22   ar
    18    22    23    1
    19    22    24   ar
    20    24    25   ar
    21    18    26    1
    22    26    27   ar
    23    27    28   ar
    24    28    29   ar
    25    29    30    1
    26    29    31   ar
    27    31    32   ar
    28     9    10    1
    29    10    11    1
    30    11    12    1
    31    11     5    1
    32    25    19   ar
    33    32    26   ar
    34    16    17    1
