@<TRIPOS>MOLECULE
*****
 34 39 0 0 0
SMALL
GASTEIGER

@<TRIPOS>ATOM
      1 C         142.8624  142.4996  167.4877 C.2     1  UNL1        0.2507
      2 O         144.2365  142.6048  168.0800 O.2     1  UNL1       -0.2698
      3 N         142.6252  142.9125  166.0653 N.am    1  UNL1       -0.2703
      4 C         141.3129  142.8641  165.3403 C.3     1  UNL1        0.1307
      5 C         141.5353  143.3679  163.9452 C.3     1  UNL1        0.2004
      6 F         140.0856  143.0081  164.0825 F       1  UNL1       -0.2336
      7 C         140.8617  143.6494  162.6348 C.3     1  UNL1        0.1321
      8 N         141.8951  144.1832  161.6876 N.pl3   1  UNL1       -0.2579
      9 C         143.2074  144.2316  162.4126 C.3     1  UNL1        0.1321
     10 C         142.9850  143.7278  163.8079 C.3     1  UNL1        0.2004
     11 F         144.4347  144.0876  163.6705 F       1  UNL1       -0.2336
     12 C         143.6586  143.4463  165.1181 C.3     1  UNL1        0.1307
     13 C         141.6579  144.5961  160.2652 C.ar    1  UNL1        0.2925
     14 N         140.4989  145.4056  159.7637 N.ar    1  UNL1       -0.1946
     15 C         140.6627  145.5818  158.2831 C.ar    1  UNL1        0.1210
     16 C         139.8271  146.2896  157.2581 C.ar    1  UNL1        0.0337
     17 C         140.2518  146.2969  155.8195 C.ar    1  UNL1        0.0594
     18 CL        139.4163  147.0048  154.7943 Cl      1  UNL1       -0.0822
     19 C         141.5121  145.5964  155.4059 C.ar    1  UNL1        0.0146
     20 C         142.3476  144.8885  156.4310 C.ar    1  UNL1        0.0400
     21 C         141.9229  144.8812  157.8696 C.ar    1  UNL1        0.1661
     22 O         142.5380  144.2721  159.0946 O.2     1  UNL1       -0.4237
     23 C         139.1622  143.2952  171.0480 C.3     1  UNL1        0.0310
     24 C         139.8754  142.3793  170.0980 C.ar    1  UNL1       -0.0216
     25 C         139.4518  140.9454  169.9782 C.ar    1  UNL1       -0.0026
     26 C         140.1650  140.0295  169.0282 C.ar    1  UNL1        0.0207
     27 C         141.3020  140.5476  168.1980 C.ar    1  UNL1        0.1072
     28 C         141.7256  141.9815  168.3179 C.ar    1  UNL1        0.0726
     29 C         141.0123  142.8974  169.2679 C.ar    1  UNL1        0.0018
     30 N         142.0152  139.6317  167.2481 N.ar    1  UNL1       -0.1477
     31 N         141.6281  139.3634  165.8239 N.ar    1  UNL1       -0.1447
     32 C         142.6144  138.3892  165.2511 C.ar    1  UNL1        0.1446
     33 C         143.6111  138.0554  166.3213 C.ar    1  UNL1        0.1446
     34 N         143.2407  138.8233  167.5555 N.ar    1  UNL1       -0.1447
@<TRIPOS>BOND
     1    23    24    1
     2    24    25   ar
     3    25    26   ar
     4    26    27   ar
     5    27    30    1
     6    30    31   ar
     7    31    32   ar
     8    32    33   ar
     9    33    34   ar
    10    27    28   ar
    11    28     1    1
    12     1     2    2
    13     1     3   am
    14     3     4    1
    15     4     5    1
    16     5     6    1
    17     5     7    1
    18     7     8    1
    19     8    13    1
    20    13    14   ar
    21    14    15   ar
    22    15    16   ar
    23    16    17   ar
    24    17    18    1
    25    17    19   ar
    26    19    20   ar
    27    20    21   ar
    28    21    22   ar
    29     8     9    1
    30     9    10    1
    31    10    11    1
    32    10    12    1
    33    28    29   ar
    34    29    24   ar
    35    34    30   ar
    36    12     3    1
    37    10     5    1
    38    22    13   ar
    39    21    15   ar
@<TRIPOS>MOLECULE
*****
 34 39 0 0 0
SMALL
GASTEIGER

@<TRIPOS>ATOM
      1 C         140.1236  141.1437  166.4106 C.2     1  UNL1        0.2507
      2 O         139.2934  139.9135  166.6282 O.2     1  UNL1       -0.2698
      3 N         140.2144  141.7552  165.0439 N.am    1  UNL1       -0.2703
      4 C         141.0009  142.9782  164.6757 C.3     1  UNL1        0.1307
      5 C         140.8072  143.2298  163.2098 C.3     1  UNL1        0.2004
      6 F         141.7134  144.2974  163.7476 F       1  UNL1       -0.2336
      7 C         141.1736  144.1412  162.0761 C.3     1  UNL1        0.1321
      8 N         140.4939  143.6370  160.8377 N.pl3   1  UNL1       -0.2579
      9 C         139.7075  142.4140  161.2059 C.3     1  UNL1        0.1321
     10 C         139.9011  142.1623  162.6719 C.3     1  UNL1        0.2004
     11 F         138.9949  141.0948  162.1341 F       1  UNL1       -0.2336
     12 C         139.5347  141.2509  163.8055 C.3     1  UNL1        0.1307
     13 C         140.5848  144.2484  159.4710 C.ar    1  UNL1        0.2925
     14 N         139.8484  145.4673  158.9996 N.ar    1  UNL1       -0.1946
     15 C         140.2364  145.7205  157.5730 C.ar    1  UNL1        0.1210
     16 C         139.8269  146.7812  156.5946 C.ar    1  UNL1        0.0337
     17 C         140.3937  146.7795  155.2058 C.ar    1  UNL1        0.0594
     18 CL        139.9842  147.8402  154.2274 Cl      1  UNL1       -0.0822
     19 C         141.3700  145.7172  154.7954 C.ar    1  UNL1        0.0146
     20 C         141.7795  144.6566  155.7738 C.ar    1  UNL1        0.0400
     21 C         141.2127  144.6582  157.1626 C.ar    1  UNL1        0.1661
     22 O         141.4279  143.7484  158.3356 O.2     1  UNL1       -0.4237
     23 C         140.3232  144.5724  170.3100 C.3     1  UNL1        0.0310
     24 C         140.9627  143.4768  169.5094 C.ar    1  UNL1       -0.0216
     25 C         142.3415  143.0001  169.8580 C.ar    1  UNL1       -0.0026
     26 C         142.9810  141.9046  169.0575 C.ar    1  UNL1        0.0207
     27 C         142.2417  141.2857  167.9084 C.ar    1  UNL1        0.1072
     28 C         140.8629  141.7625  167.5597 C.ar    1  UNL1        0.0726
     29 C         140.2234  142.8581  168.3603 C.ar    1  UNL1        0.0018
     30 N         142.8812  140.1902  167.1079 N.ar    1  UNL1       -0.1477
     31 N         143.1752  138.8011  167.5916 N.ar    1  UNL1       -0.1447
     32 C         143.8147  138.0438  166.4658 C.ar    1  UNL1        0.1446
     33 C         143.9160  138.9649  165.2862 C.ar    1  UNL1        0.1446
     34 N         143.3391  140.2915  165.6831 N.ar    1  UNL1       -0.1447
@<TRIPOS>BOND
     1    23    24    1
     2    24    25   ar
     3    25    26   ar
     4    26    27   ar
     5    27    30    1
     6    30    31   ar
     7    31    32   ar
     8    32    33   ar
     9    33    34   ar
    10    27    28   ar
    11    28     1    1
    12     1     2    2
    13     1     3   am
    14     3     4    1
    15     4     5    1
    16     5     6    1
    17     5     7    1
    18     7     8    1
    19     8    13    1
    20    13    14   ar
    21    14    15   ar
    22    15    16   ar
    23    16    17   ar
    24    17    18    1
    25    17    19   ar
    26    19    20   ar
    27    20    21   ar
    28    21    22   ar
    29     8     9    1
    30     9    10    1
    31    10    11    1
    32    10    12    1
    33    28    29   ar
    34    29    24   ar
    35    34    30   ar
    36    12     3    1
    37    10     5    1
    38    22    13   ar
    39    21    15   ar
@<TRIPOS>MOLECULE
*****
 34 39 0 0 0
SMALL
GASTEIGER

@<TRIPOS>ATOM
      1 C         141.0499  142.3917  166.0014 C.2     1  UNL1        0.2507
      2 O         139.7763  143.1706  166.1466 O.2     1  UNL1       -0.2698
      3 N         141.6909  142.2470  164.6530 N.am    1  UNL1       -0.2703
      4 C         142.9581  141.5019  164.3545 C.3     1  UNL1        0.1307
      5 C         143.2276  141.6163  162.8835 C.3     1  UNL1        0.2004
      6 F         144.3282  140.8005  163.4943 F       1  UNL1       -0.2336
      7 C         144.1773  141.2266  161.7898 C.3     1  UNL1        0.1321
      8 N         143.6637  141.8015  160.5031 N.pl3   1  UNL1       -0.2579
      9 C         142.3965  142.5466  160.8015 C.3     1  UNL1        0.1321
     10 C         142.1270  142.4322  162.2727 C.3     1  UNL1        0.2004
     11 F         141.0264  143.2480  161.6619 F       1  UNL1       -0.2336
     12 C         141.1773  142.8219  163.3663 C.3     1  UNL1        0.1307
     13 C         144.3047  141.6567  159.1547 C.ar    1  UNL1        0.2925
     14 N         145.3743  142.5422  158.5873 N.ar    1  UNL1       -0.1946
     15 C         145.7193  142.0338  157.2189 C.ar    1  UNL1        0.1210
     16 C         146.7026  142.5083  156.1903 C.ar    1  UNL1        0.0337
     17 C         146.8295  141.7831  154.8834 C.ar    1  UNL1        0.0594
     18 CL        147.8128  142.2576  153.8548 Cl      1  UNL1       -0.0822
     19 C         145.9732  140.5834  154.6051 C.ar    1  UNL1        0.0146
     20 C         144.9899  140.1090  155.6337 C.ar    1  UNL1        0.0400
     21 C         144.8629  140.8342  156.9406 C.ar    1  UNL1        0.1661
     22 O         143.9887  140.6011  158.1370 O.2     1  UNL1       -0.4237
     23 C         144.3845  142.6224  169.9798 C.3     1  UNL1        0.0310
     24 C         143.3498  141.8729  169.1937 C.ar    1  UNL1       -0.0216
     25 C         142.9478  140.4893  169.6109 C.ar    1  UNL1       -0.0026
     26 C         141.9132  139.7398  168.8249 C.ar    1  UNL1        0.0207
     27 C         141.2805  140.3740  167.6217 C.ar    1  UNL1        0.1072
     28 C         141.6825  141.7576  167.2045 C.ar    1  UNL1        0.0726
     29 C         142.7172  142.5071  167.9906 C.ar    1  UNL1        0.0018
     30 N         140.2459  139.6245  166.8357 N.ar    1  UNL1       -0.1477
     31 N         140.4855  138.8576  165.5690 N.ar    1  UNL1       -0.1447
     32 C         139.1777  138.2694  165.1288 C.ar    1  UNL1        0.1446
     33 C         138.1299  138.6729  166.1235 C.ar    1  UNL1        0.1446
     34 N         138.7901  139.5104  167.1784 N.ar    1  UNL1       -0.1447
@<TRIPOS>BOND
     1    23    24    1
     2    24    25   ar
     3    25    26   ar
     4    26    27   ar
     5    27    30    1
     6    30    31   ar
     7    31    32   ar
     8    32    33   ar
     9    33    34   ar
    10    27    28   ar
    11    28     1    1
    12     1     2    2
    13     1     3   am
    14     3     4    1
    15     4     5    1
    16     5     6    1
    17     5     7    1
    18     7     8    1
    19     8    13    1
    20    13    14   ar
    21    14    15   ar
    22    15    16   ar
    23    16    17   ar
    24    17    18    1
    25    17    19   ar
    26    19    20   ar
    27    20    21   ar
    28    21    22   ar
    29     8     9    1
    30     9    10    1
    31    10    11    1
    32    10    12    1
    33    28    29   ar
    34    29    24   ar
    35    34    30   ar
    36    12     3    1
    37    10     5    1
    38    22    13   ar
    39    21    15   ar
@<TRIPOS>MOLECULE
*****
 34 39 0 0 0
SMALL
GASTEIGER

@<TRIPOS>ATOM
      1 C         142.2575  143.4790  162.2534 C.2     1  UNL1        0.2507
      2 O         142.9153  144.7561  161.8219 O.2     1  UNL1       -0.2698
      3 N         142.2706  142.2847  161.3458 N.am    1  UNL1       -0.2703
      4 C         141.6577  140.9475  161.6393 C.3     1  UNL1        0.1307
      5 C         141.9072  140.0544  160.4604 C.3     1  UNL1        0.2004
      6 F         141.1401  139.2692  161.4826 F       1  UNL1       -0.2336
      7 C         141.6826  138.6760  159.9131 C.3     1  UNL1        0.1321
      8 N         142.3110  138.6093  158.5527 N.pl3   1  UNL1       -0.2579
      9 C         142.9239  139.9465  158.2592 C.3     1  UNL1        0.1321
     10 C         142.6744  140.8397  159.4382 C.3     1  UNL1        0.2004
     11 F         143.4415  141.6249  158.4160 F       1  UNL1       -0.2336
     12 C         142.8990  142.2180  159.9854 C.3     1  UNL1        0.1307
     13 C         142.3241  137.4151  157.6451 C.ar    1  UNL1        0.2925
     14 N         141.3163  137.1080  156.5773 N.ar    1  UNL1       -0.1946
     15 C         141.7166  135.8214  155.9183 C.ar    1  UNL1        0.1210
     16 C         141.1003  135.0313  154.8021 C.ar    1  UNL1        0.0337
     17 C         141.7393  133.7530  154.3464 C.ar    1  UNL1        0.0594
     18 CL        141.1230  132.9628  153.2302 Cl      1  UNL1       -0.0822
     19 C         142.9945  133.2649  155.0068 C.ar    1  UNL1        0.0146
     20 C         143.6108  134.0550  156.1230 C.ar    1  UNL1        0.0400
     21 C         142.9718  135.3333  156.5787 C.ar    1  UNL1        0.1661
     22 O         143.3472  136.3182  157.6459 O.2     1  UNL1       -0.4237
     23 C         138.3289  144.7570  165.4051 C.3     1  UNL1        0.0310
     24 C         139.6223  144.0351  165.1682 C.ar    1  UNL1       -0.0216
     25 C         140.2448  143.2303  166.2704 C.ar    1  UNL1       -0.0026
     26 C         141.5381  142.5084  166.0337 C.ar    1  UNL1        0.0207
     27 C         142.2091  142.5912  164.6946 C.ar    1  UNL1        0.1072
     28 C         141.5866  143.3960  163.5924 C.ar    1  UNL1        0.0726
     29 C         140.2932  144.1180  163.8292 C.ar    1  UNL1        0.0018
     30 N         143.5024  141.8694  164.4578 N.ar    1  UNL1       -0.1477
     31 N         144.8168  142.5050  164.1138 N.ar    1  UNL1       -0.1447
     32 C         145.8352  141.4136  163.9668 C.ar    1  UNL1        0.1446
     33 C         145.1502  140.1033  164.2200 C.ar    1  UNL1        0.1446
     34 N         143.7084  140.3850  164.5235 N.ar    1  UNL1       -0.1447
@<TRIPOS>BOND
     1    23    24    1
     2    24    25   ar
     3    25    26   ar
     4    26    27   ar
     5    27    30    1
     6    30    31   ar
     7    31    32   ar
     8    32    33   ar
     9    33    34   ar
    10    27    28   ar
    11    28     1    1
    12     1     2    2
    13     1     3   am
    14     3     4    1
    15     4     5    1
    16     5     6    1
    17     5     7    1
    18     7     8    1
    19     8    13    1
    20    13    14   ar
    21    14    15   ar
    22    15    16   ar
    23    16    17   ar
    24    17    18    1
    25    17    19   ar
    26    19    20   ar
    27    20    21   ar
    28    21    22   ar
    29     8     9    1
    30     9    10    1
    31    10    11    1
    32    10    12    1
    33    28    29   ar
    34    29    24   ar
    35    34    30   ar
    36    12     3    1
    37    10     5    1
    38    22    13   ar
    39    21    15   ar
@<TRIPOS>MOLECULE
*****
 34 39 0 0 0
SMALL
GASTEIGER

@<TRIPOS>ATOM
      1 C         143.2057  142.8593  164.0001 C.2     1  UNL1        0.2507
      2 O         144.1017  144.0476  163.8128 O.2     1  UNL1       -0.2698
      3 N         143.0869  141.8311  162.9145 N.am    1  UNL1       -0.2703
      4 C         142.2355  140.5969  162.9584 C.3     1  UNL1        0.1307
      5 C         142.4210  139.8595  161.6655 C.3     1  UNL1        0.2004
      6 F         141.4550  139.0810  162.5085 F       1  UNL1       -0.2336
      7 C         142.0095  138.6410  160.8935 C.3     1  UNL1        0.1321
      8 N         142.7212  138.6664  159.5733 N.pl3   1  UNL1       -0.2579
      9 C         143.5725  139.9006  159.5294 C.3     1  UNL1        0.1321
     10 C         143.3870  140.6380  160.8224 C.3     1  UNL1        0.2004
     11 F         144.3531  141.4165  159.9793 F       1  UNL1       -0.2336
     12 C         143.7985  141.8564  161.5943 C.3     1  UNL1        0.1307
     13 C         142.6024  137.6382  158.4877 C.ar    1  UNL1        0.2925
     14 N         141.7150  137.7278  157.2816 N.ar    1  UNL1       -0.1946
     15 C         141.9143  136.4848  156.4661 C.ar    1  UNL1        0.1210
     16 C         141.3061  136.0233  155.1749 C.ar    1  UNL1        0.0337
     17 C         141.7085  134.7038  154.5858 C.ar    1  UNL1        0.0594
     18 CL        141.1003  134.2423  153.2945 Cl      1  UNL1       -0.0822
     19 C         142.7190  133.8459  155.2878 C.ar    1  UNL1        0.0146
     20 C         143.3272  134.3074  156.5789 C.ar    1  UNL1        0.0400
     21 C         142.9248  135.6268  157.1681 C.ar    1  UNL1        0.1661
     22 O         143.3500  136.3397  158.4175 O.2     1  UNL1       -0.4237
     23 C         142.9750  141.3802  168.9760 C.3     1  UNL1        0.0310
     24 C         142.3132  141.9597  167.7610 C.ar    1  UNL1       -0.0216
     25 C         140.8742  142.3792  167.8189 C.ar    1  UNL1       -0.0026
     26 C         140.2124  142.9587  166.6040 C.ar    1  UNL1        0.0207
     27 C         140.9895  143.1187  165.3310 C.ar    1  UNL1        0.1072
     28 C         142.4285  142.6993  165.2730 C.ar    1  UNL1        0.0726
     29 C         143.0903  142.1198  166.4880 C.ar    1  UNL1        0.0018
     30 N         140.3277  143.6982  164.1161 N.ar    1  UNL1       -0.1477
     31 N         139.4121  142.9686  163.1783 N.ar    1  UNL1       -0.1447
     32 C         138.9838  143.9285  162.1082 C.ar    1  UNL1        0.1446
     33 C         139.6347  145.2514  162.3846 C.ar    1  UNL1        0.1446
     34 N         140.4652  145.1090  163.6256 N.ar    1  UNL1       -0.1447
@<TRIPOS>BOND
     1    23    24    1
     2    24    25   ar
     3    25    26   ar
     4    26    27   ar
     5    27    30    1
     6    30    31   ar
     7    31    32   ar
     8    32    33   ar
     9    33    34   ar
    10    27    28   ar
    11    28     1    1
    12     1     2    2
    13     1     3   am
    14     3     4    1
    15     4     5    1
    16     5     6    1
    17     5     7    1
    18     7     8    1
    19     8    13    1
    20    13    14   ar
    21    14    15   ar
    22    15    16   ar
    23    16    17   ar
    24    17    18    1
    25    17    19   ar
    26    19    20   ar
    27    20    21   ar
    28    21    22   ar
    29     8     9    1
    30     9    10    1
    31    10    11    1
    32    10    12    1
    33    28    29   ar
    34    29    24   ar
    35    34    30   ar
    36    12     3    1
    37    10     5    1
    38    22    13   ar
    39    21    15   ar
@<TRIPOS>MOLECULE
*****
 34 39 0 0 0
SMALL
GASTEIGER

@<TRIPOS>ATOM
      1 C         141.2249  139.0072  164.9199 C.2     1  UNL1        0.2507
      2 O         141.8232  137.6395  165.0661 O.2     1  UNL1       -0.2698
      3 N         140.5774  139.4085  163.6278 N.am    1  UNL1       -0.2703
      4 C         139.9403  140.7346  163.3353 C.3     1  UNL1        0.1307
      5 C         139.4225  140.6997  161.9281 C.3     1  UNL1        0.2004
      6 F         139.1055  142.0474  162.5054 F       1  UNL1       -0.2336
      7 C         138.7087  141.4978  160.8775 C.3     1  UNL1        0.1321
      8 N         138.5844  140.6434  159.6509 N.pl3   1  UNL1       -0.2579
      9 C         139.2215  139.3172  159.9434 C.3     1  UNL1        0.1321
     10 C         139.7394  139.3521  161.3507 C.3     1  UNL1        0.2004
     11 F         140.0563  138.0044  160.7734 F       1  UNL1       -0.2336
     12 C         140.4532  138.5540  162.4012 C.3     1  UNL1        0.1307
     13 C         137.9369  141.0446  158.3588 C.ar    1  UNL1        0.2925
     14 N         138.3101  142.2277  157.5156 N.ar    1  UNL1       -0.1946
     15 C         137.4063  142.2475  156.3186 C.ar    1  UNL1        0.1210
     16 C         137.3114  143.1805  155.1479 C.ar    1  UNL1        0.0337
     17 C         136.2848  142.9425  154.0806 C.ar    1  UNL1        0.0594
     18 CL        136.1899  143.8754  152.9098 Cl      1  UNL1       -0.0822
     19 C         135.3530  141.7716  154.1840 C.ar    1  UNL1        0.0146
     20 C         135.4478  140.8386  155.3547 C.ar    1  UNL1        0.0400
     21 C         136.4745  141.0766  156.4220 C.ar    1  UNL1        0.1661
     22 O         136.8024  140.3332  157.6829 O.2     1  UNL1       -0.4237
     23 C         139.3644  140.6903  169.4704 C.3     1  UNL1        0.0310
     24 C         140.3440  140.8152  168.3412 C.ar    1  UNL1       -0.0216
     25 C         141.3728  141.9067  168.3581 C.ar    1  UNL1       -0.0026
     26 C         142.3523  142.0316  167.2291 C.ar    1  UNL1        0.0207
     27 C         142.3030  141.0651  166.0829 C.ar    1  UNL1        0.1072
     28 C         141.2742  139.9737  166.0660 C.ar    1  UNL1        0.0726
     29 C         140.2947  139.8487  167.1952 C.ar    1  UNL1        0.0018
     30 N         143.2826  141.1901  164.9538 N.ar    1  UNL1       -0.1477
     31 N         144.4754  140.3112  164.7200 N.ar    1  UNL1       -0.1447
     32 C         145.1713  140.7938  163.4820 C.ar    1  UNL1        0.1446
     33 C         144.4085  141.9711  162.9506 C.ar    1  UNL1        0.1446
     34 N         143.2412  142.2160  163.8603 N.ar    1  UNL1       -0.1447
@<TRIPOS>BOND
     1    23    24    1
     2    24    25   ar
     3    25    26   ar
     4    26    27   ar
     5    27    30    1
     6    30    31   ar
     7    31    32   ar
     8    32    33   ar
     9    33    34   ar
    10    27    28   ar
    11    28     1    1
    12     1     2    2
    13     1     3   am
    14     3     4    1
    15     4     5    1
    16     5     6    1
    17     5     7    1
    18     7     8    1
    19     8    13    1
    20    13    14   ar
    21    14    15   ar
    22    15    16   ar
    23    16    17   ar
    24    17    18    1
    25    17    19   ar
    26    19    20   ar
    27    20    21   ar
    28    21    22   ar
    29     8     9    1
    30     9    10    1
    31    10    11    1
    32    10    12    1
    33    28    29   ar
    34    29    24   ar
    35    34    30   ar
    36    12     3    1
    37    10     5    1
    38    22    13   ar
    39    21    15   ar
@<TRIPOS>MOLECULE
*****
 34 39 0 0 0
SMALL
GASTEIGER

@<TRIPOS>ATOM
      1 C         140.0813  142.4163  164.0976 C.2     1  UNL1        0.2507
      2 O         139.1709  143.5996  163.9530 O.2     1  UNL1       -0.2698
      3 N         140.3445  141.5243  162.9208 N.am    1  UNL1       -0.2703
      4 C         141.2267  140.3112  162.9138 C.3     1  UNL1        0.1307
      5 C         141.1991  139.7259  161.5331 C.3     1  UNL1        0.2004
      6 F         142.0984  138.8745  162.3795 F       1  UNL1       -0.2336
      7 C         141.7272  138.6144  160.6754 C.3     1  UNL1        0.1321
      8 N         141.1544  138.7787  159.2989 N.pl3   1  UNL1       -0.2579
      9 C         140.2721  139.9918  159.3059 C.3     1  UNL1        0.1321
     10 C         140.2997  140.5772  160.6867 C.3     1  UNL1        0.2004
     11 F         139.4004  141.4285  159.8402 F       1  UNL1       -0.2336
     12 C         139.7716  141.6886  161.5443 C.3     1  UNL1        0.1307
     13 C         141.4175  137.8866  158.1220 C.ar    1  UNL1        0.2925
     14 N         140.4332  137.5314  157.0474 N.ar    1  UNL1       -0.1946
     15 C         141.1185  136.6184  156.0744 C.ar    1  UNL1        0.1210
     16 C         140.6424  135.9504  154.8186 C.ar    1  UNL1        0.0337
     17 C         141.5743  135.0733  154.0361 C.ar    1  UNL1        0.0594
     18 CL        141.0982  134.4052  152.7802 Cl      1  UNL1       -0.0822
     19 C         142.9822  134.8642  154.5094 C.ar    1  UNL1        0.0146
     20 C         143.4583  135.5322  155.7652 C.ar    1  UNL1        0.0400
     21 C         142.5264  136.4093  156.5477 C.ar    1  UNL1        0.1661
     22 O         142.7112  137.1931  157.8132 O.2     1  UNL1       -0.4237
     23 C         139.8185  140.4543  168.9020 C.3     1  UNL1        0.0310
     24 C         140.5972  141.1441  167.8212 C.ar    1  UNL1       -0.0216
     25 C         142.0231  141.5427  168.0620 C.ar    1  UNL1       -0.0026
     26 C         142.8017  142.2325  166.9813 C.ar    1  UNL1        0.0207
     27 C         142.1545  142.5237  165.6598 C.ar    1  UNL1        0.1072
     28 C         140.7286  142.1251  165.4190 C.ar    1  UNL1        0.0726
     29 C         139.9499  141.4353  166.4998 C.ar    1  UNL1        0.0018
     30 N         142.9331  143.2135  164.5791 N.ar    1  UNL1       -0.1477
     31 N         142.8517  144.6690  164.2257 N.ar    1  UNL1       -0.1447
     32 C         143.7982  144.9240  163.0903 C.ar    1  UNL1        0.1446
     33 C         144.4645  143.6259  162.7420 C.ar    1  UNL1        0.1446
     34 N         143.9299  142.5689  163.6621 N.ar    1  UNL1       -0.1447
@<TRIPOS>BOND
     1    23    24    1
     2    24    25   ar
     3    25    26   ar
     4    26    27   ar
     5    27    30    1
     6    30    31   ar
     7    31    32   ar
     8    32    33   ar
     9    33    34   ar
    10    27    28   ar
    11    28     1    1
    12     1     2    2
    13     1     3   am
    14     3     4    1
    15     4     5    1
    16     5     6    1
    17     5     7    1
    18     7     8    1
    19     8    13    1
    20    13    14   ar
    21    14    15   ar
    22    15    16   ar
    23    16    17   ar
    24    17    18    1
    25    17    19   ar
    26    19    20   ar
    27    20    21   ar
    28    21    22   ar
    29     8     9    1
    30     9    10    1
    31    10    11    1
    32    10    12    1
    33    28    29   ar
    34    29    24   ar
    35    34    30   ar
    36    12     3    1
    37    10     5    1
    38    22    13   ar
    39    21    15   ar
@<TRIPOS>MOLECULE
*****
 34 39 0 0 0
SMALL
GASTEIGER

@<TRIPOS>ATOM
      1 C         142.5015  140.6031  166.5635 C.2     1  UNL1        0.2507
      2 O         143.1401  139.2505  166.6764 O.2     1  UNL1       -0.2698
      3 N         142.3453  141.2489  165.2187 N.am    1  UNL1       -0.2703
      4 C         141.7299  142.5904  164.9510 C.3     1  UNL1        0.1307
      5 C         141.7813  142.8372  163.4725 C.3     1  UNL1        0.2004
      6 F         141.1342  144.0262  164.1186 F       1  UNL1       -0.2336
      7 C         141.4327  143.8189  162.3931 C.3     1  UNL1        0.1321
      8 N         141.8645  143.2366  161.0799 N.pl3   1  UNL1       -0.2579
      9 C         142.4798  141.8951  161.3476 C.3     1  UNL1        0.1321
     10 C         142.4285  141.6483  162.8263 C.3     1  UNL1        0.2004
     11 F         143.0756  140.4593  162.1801 F       1  UNL1       -0.2336
     12 C         142.7770  140.6667  163.9055 C.3     1  UNL1        0.1307
     13 C         141.7082  143.8824  159.7351 C.ar    1  UNL1        0.2925
     14 N         142.4994  143.5564  158.5031 N.ar    1  UNL1       -0.1946
     15 C         142.0135  144.4401  157.3928 C.ar    1  UNL1        0.1210
     16 C         142.4239  144.5633  155.9553 C.ar    1  UNL1        0.0337
     17 C         141.7429  145.5587  155.0636 C.ar    1  UNL1        0.0594
     18 CL        142.1533  145.6819  153.6260 Cl      1  UNL1       -0.0822
     19 C         140.6515  146.4310  155.6093 C.ar    1  UNL1        0.0146
     20 C         140.2410  146.3079  157.0468 C.ar    1  UNL1        0.0400
     21 C         140.9221  145.3124  157.9385 C.ar    1  UNL1        0.1661
     22 O         140.7334  144.9677  159.3861 O.2     1  UNL1       -0.4237
     23 C         143.4740  143.5404  170.7381 C.3     1  UNL1        0.0310
     24 C         142.5055  142.7785  169.8828 C.ar    1  UNL1       -0.0216
     25 C         141.0546  142.7234  170.2596 C.ar    1  UNL1       -0.0026
     26 C         140.0861  141.9615  169.4044 C.ar    1  UNL1        0.0207
     27 C         140.5684  141.2547  168.1723 C.ar    1  UNL1        0.1072
     28 C         142.0192  141.3098  167.7955 C.ar    1  UNL1        0.0726
     29 C         142.9878  142.0718  168.6508 C.ar    1  UNL1        0.0018
     30 N         139.5998  140.4928  167.3171 N.ar    1  UNL1       -0.1477
     31 N         138.9440  139.1915  167.6727 N.ar    1  UNL1       -0.1447
     32 C         138.0559  138.7929  166.5315 C.ar    1  UNL1        0.1446
     33 C         138.1628  139.8480  165.4706 C.ar    1  UNL1        0.1446
     34 N         139.1170  140.8985  165.9561 N.ar    1  UNL1       -0.1447
@<TRIPOS>BOND
     1    23    24    1
     2    24    25   ar
     3    25    26   ar
     4    26    27   ar
     5    27    30    1
     6    30    31   ar
     7    31    32   ar
     8    32    33   ar
     9    33    34   ar
    10    27    28   ar
    11    28     1    1
    12     1     2    2
    13     1     3   am
    14     3     4    1
    15     4     5    1
    16     5     6    1
    17     5     7    1
    18     7     8    1
    19     8    13    1
    20    13    14   ar
    21    14    15   ar
    22    15    16   ar
    23    16    17   ar
    24    17    18    1
    25    17    19   ar
    26    19    20   ar
    27    20    21   ar
    28    21    22   ar
    29     8     9    1
    30     9    10    1
    31    10    11    1
    32    10    12    1
    33    28    29   ar
    34    29    24   ar
    35    34    30   ar
    36    12     3    1
    37    10     5    1
    38    22    13   ar
    39    21    15   ar
@<TRIPOS>MOLECULE
*****
 34 39 0 0 0
SMALL
GASTEIGER

@<TRIPOS>ATOM
      1 C         141.3768  138.8354  157.2052 C.2     1  UNL1        0.2507
      2 O         140.3912  139.6404  156.4112 O.2     1  UNL1       -0.2698
      3 N         141.5694  139.1149  158.6663 N.am    1  UNL1       -0.2703
      4 C         142.5134  138.3966  159.5844 C.3     1  UNL1        0.1307
      5 C         142.3793  138.9995  160.9513 C.3     1  UNL1        0.2004
      6 F         143.4062  137.9085  161.0246 F       1  UNL1       -0.2336
      7 C         142.8798  138.9282  162.3635 C.3     1  UNL1        0.1321
      8 N         142.1624  139.9751  163.1630 N.pl3   1  UNL1       -0.2579
      9 C         141.2184  140.6934  162.2449 C.3     1  UNL1        0.1321
     10 C         141.3525  140.0905  160.8780 C.3     1  UNL1        0.2004
     11 F         140.3256  141.1814  160.8047 F       1  UNL1       -0.2336
     12 C         140.8520  140.1618  159.4658 C.3     1  UNL1        0.1307
     13 C         142.3550  140.2546  164.6241 C.ar    1  UNL1        0.2925
     14 N         142.6803  141.5869  165.2315 N.ar    1  UNL1       -0.1946
     15 C         142.7826  141.4066  166.7172 C.ar    1  UNL1        0.1210
     16 C         143.0805  142.3706  167.8271 C.ar    1  UNL1        0.0337
     17 C         143.1162  141.8907  169.2477 C.ar    1  UNL1        0.0594
     18 CL        143.4141  142.8547  170.3578 Cl      1  UNL1       -0.0822
     19 C         142.8541  140.4468  169.5585 C.ar    1  UNL1        0.0146
     20 C         142.5562  139.4829  168.4486 C.ar    1  UNL1        0.0400
     21 C         142.5204  139.9628  167.0279 C.ar    1  UNL1        0.1661
     22 O         142.2562  139.2508  165.7344 O.2     1  UNL1       -0.4237
     23 C         141.8228  133.9009  155.6392 C.3     1  UNL1        0.0310
     24 C         142.3927  135.2836  155.7551 C.ar    1  UNL1       -0.0216
     25 C         143.7556  135.5817  155.2040 C.ar    1  UNL1       -0.0026
     26 C         144.3255  136.9643  155.3199 C.ar    1  UNL1        0.0207
     27 C         143.5326  138.0490  155.9870 C.ar    1  UNL1        0.1072
     28 C         142.1697  137.7509  156.5382 C.ar    1  UNL1        0.0726
     29 C         141.5998  136.3681  156.4222 C.ar    1  UNL1        0.0018
     30 N         144.1025  139.4316  156.1029 N.ar    1  UNL1       -0.1477
     31 N         144.8282  139.9893  157.2914 N.ar    1  UNL1       -0.1447
     32 C         145.2210  141.4017  156.9737 C.ar    1  UNL1        0.1446
     33 C         144.7381  141.7168  155.5889 C.ar    1  UNL1        0.1446
     34 N         144.0468  140.4992  155.0508 N.ar    1  UNL1       -0.1447
@<TRIPOS>BOND
     1    23    24    1
     2    24    25   ar
     3    25    26   ar
     4    26    27   ar
     5    27    30    1
     6    30    31   ar
     7    31    32   ar
     8    32    33   ar
     9    33    34   ar
    10    27    28   ar
    11    28     1    1
    12     1     2    2
    13     1     3   am
    14     3     4    1
    15     4     5    1
    16     5     6    1
    17     5     7    1
    18     7     8    1
    19     8    13    1
    20    13    14   ar
    21    14    15   ar
    22    15    16   ar
    23    16    17   ar
    24    17    18    1
    25    17    19   ar
    26    19    20   ar
    27    20    21   ar
    28    21    22   ar
    29     8     9    1
    30     9    10    1
    31    10    11    1
    32    10    12    1
    33    28    29   ar
    34    29    24   ar
    35    34    30   ar
    36    12     3    1
    37    10     5    1
    38    22    13   ar
    39    21    15   ar
