@<TRIPOS>MOLECULE
*****
 29 32 0 0 0
SMALL
GASTEIGER

@<TRIPOS>ATOM
      1 C         141.4769  142.0560  166.2478 C.2     1  UNL1        0.0035
      2 C         140.9774  142.5058  167.5888 C.2     1  UNL1        0.0130
      3 C         141.2583  141.6802  168.8093 C.3     1  UNL1        0.1542
      4 C         140.4780  142.9556  168.9298 C.3     1  UNL1        0.0614
      5 C         139.9786  143.4053  170.2707 C.3     1  UNL1        0.0725
      6 N         140.2595  142.5797  171.4912 N.3     1  UNL1       -0.2972
      7 C         141.0397  141.3044  171.3707 C.3     1  UNL1        0.0725
      8 C         141.5391  140.8546  170.0297 C.3     1  UNL1        0.0614
      9 O         142.0386  140.4048  168.6887 O.3     1  UNL1       -0.4785
     10 C         142.5380  139.9550  167.3477 C.ar    1  UNL1        0.1386
     11 C         143.3184  138.6796  167.2271 C.ar    1  UNL1        0.0369
     12 C         143.8178  138.2298  165.8862 C.ar    1  UNL1        0.0031
     13 C         143.5369  139.0554  164.6657 C.ar    1  UNL1        0.0002
     14 C         142.7566  140.3308  164.7862 C.ar    1  UNL1        0.0030
     15 C         142.2572  140.7806  166.1273 C.ar    1  UNL1        0.0338
     16 H         139.3556  142.3348  171.8954 H       1  UNL1        0.1233
     17 C         140.6343  144.5328  162.5864 C.ar    1  UNL1        0.1347
     18 C         141.9209  144.7153  163.3356 C.ar    1  UNL1        0.0238
     19 C         142.2017  143.8897  164.5560 C.ar    1  UNL1        0.0032
     20 C         141.1960  142.8816  165.0273 C.ar    1  UNL1        0.0191
     21 C         139.9093  142.6990  164.2781 C.ar    1  UNL1        0.0989
     22 N         139.6285  143.5246  163.0577 N.ar    1  UNL1       -0.2393
     23 N         140.6840  144.8215  160.0049 N.am    1  UNL1       -0.2748
     24 C         140.3534  145.3583  161.3660 C.2     1  UNL1        0.2668
     25 O         139.7419  146.7209  161.5066 O.2     1  UNL1       -0.2683
     26 C         141.4858  145.8837  157.7736 C.3     1  UNL1        0.0233
     27 C         140.4031  145.6471  158.7845 C.3     1  UNL1        0.0938
     28 C         141.2955  143.4590  159.8643 C.3     1  UNL1        0.0938
     29 C         142.7835  143.2919  159.9529 C.3     1  UNL1        0.0233
@<TRIPOS>BOND
     1    26    27    1
     2    27    23    1
     3    23    28    1
     4    28    29    1
     5    23    24   am
     6    24    25    2
     7    24    17    1
     8    17    18   ar
     9    18    19   ar
    10    19    20   ar
    11    20     1    1
    12     1     2    2
    13     2     3    1
    14     3     4    1
    15     4     5    1
    16     5     6    1
    17     6     7    1
    18     7     8    1
    19     3     9    1
    20     9    10    1
    21    10    11   ar
    22    11    12   ar
    23    12    13   ar
    24    13    14   ar
    25    14    15   ar
    26    20    21   ar
    27    21    22   ar
    28    22    17   ar
    29    15     1    1
    30     8     3    1
    31    15    10   ar
    32     6    16    1
@<TRIPOS>MOLECULE
*****
 29 32 0 0 0
SMALL
GASTEIGER

@<TRIPOS>ATOM
      1 C         141.5129  140.9267  166.2959 C.2     1  UNL1        0.0035
      2 C         142.1432  141.5591  167.5012 C.2     1  UNL1        0.0130
      3 C         141.5077  141.3997  168.8505 C.3     1  UNL1        0.1542
      4 C         142.7735  142.1914  168.7066 C.3     1  UNL1        0.0614
      5 C         143.4038  142.8237  169.9119 C.3     1  UNL1        0.0725
      6 N         142.7682  142.6643  171.2612 N.3     1  UNL1       -0.2972
      7 C         141.5024  141.8726  171.4052 C.3     1  UNL1        0.0725
      8 C         140.8721  141.2403  170.1999 C.3     1  UNL1        0.0614
      9 O         140.2417  140.6079  168.9945 O.3     1  UNL1       -0.4785
     10 C         139.6115  139.9756  167.7891 C.ar    1  UNL1        0.1386
     11 C         138.3455  139.1839  167.9331 C.ar    1  UNL1        0.0369
     12 C         137.7153  138.5516  166.7277 C.ar    1  UNL1        0.0031
     13 C         138.3508  138.7110  165.3784 C.ar    1  UNL1        0.0002
     14 C         139.6167  139.5027  165.2344 C.ar    1  UNL1        0.0030
     15 C         140.2470  140.1350  166.4398 C.ar    1  UNL1        0.0338
     16 H         142.5689  143.6035  171.6056 H       1  UNL1        0.1233
     17 C         143.4196  141.4049  162.2479 C.ar    1  UNL1        0.1347
     18 C         143.9392  140.3730  163.2045 C.ar    1  UNL1        0.0238
     19 C         143.3036  140.2136  164.5538 C.ar    1  UNL1        0.0032
     20 C         142.1485  141.0861  164.9465 C.ar    1  UNL1        0.0191
     21 C         141.6288  142.1181  163.9899 C.ar    1  UNL1        0.0989
     22 N         142.2644  142.2775  162.6406 N.ar    1  UNL1       -0.2393
     23 N         143.6163  140.6977  159.7557 N.am    1  UNL1       -0.2748
     24 C         144.0552  141.5643  160.8986 C.2     1  UNL1        0.2668
     25 O         145.1297  142.5905  160.6922 O.2     1  UNL1       -0.2683
     26 C         143.5813  141.6911  157.3553 C.3     1  UNL1        0.0233
     27 C         144.2519  140.8571  158.4064 C.3     1  UNL1        0.0938
     28 C         142.5418  139.6715  159.9621 C.3     1  UNL1        0.0938
     29 C         142.7443  138.2660  159.4791 C.3     1  UNL1        0.0233
@<TRIPOS>BOND
     1    26    27    1
     2    27    23    1
     3    23    28    1
     4    28    29    1
     5    23    24   am
     6    24    25    2
     7    24    17    1
     8    17    18   ar
     9    18    19   ar
    10    19    20   ar
    11    20     1    1
    12     1     2    2
    13     2     3    1
    14     3     4    1
    15     4     5    1
    16     5     6    1
    17     6     7    1
    18     7     8    1
    19     3     9    1
    20     9    10    1
    21    10    11   ar
    22    11    12   ar
    23    12    13   ar
    24    13    14   ar
    25    14    15   ar
    26    20    21   ar
    27    21    22   ar
    28    22    17   ar
    29    15     1    1
    30     8     3    1
    31    15    10   ar
    32     6    16    1
@<TRIPOS>MOLECULE
*****
 29 32 0 0 0
SMALL
GASTEIGER

@<TRIPOS>ATOM
      1 C         139.8626  141.9241  165.6866 C.2     1  UNL1        0.0035
      2 C         140.2107  142.4543  167.0460 C.2     1  UNL1        0.0130
      3 C         140.1402  141.5531  168.2431 C.3     1  UNL1        0.1542
      4 C         140.5588  142.9843  168.4053 C.3     1  UNL1        0.0614
      5 C         140.9069  143.5144  169.7647 C.3     1  UNL1        0.0725
      6 N         140.8364  142.6132  170.9617 N.3     1  UNL1       -0.2972
      7 C         140.4179  141.1820  170.7995 C.3     1  UNL1        0.0725
      8 C         140.0698  140.6519  169.4401 C.3     1  UNL1        0.0614
      9 O         139.7216  140.1218  168.0808 O.3     1  UNL1       -0.4785
     10 C         139.3735  139.5918  166.7214 C.ar    1  UNL1        0.1386
     11 C         138.9549  138.1605  166.5591 C.ar    1  UNL1        0.0369
     12 C         138.6068  137.6304  165.1998 C.ar    1  UNL1        0.0031
     13 C         138.6773  138.5316  164.0027 C.ar    1  UNL1        0.0002
     14 C         139.0959  139.9628  164.1650 C.ar    1  UNL1        0.0030
     15 C         139.4440  140.4929  165.5244 C.ar    1  UNL1        0.0338
     16 H         140.1783  143.0404  171.6135 H       1  UNL1        0.1233
     17 C         140.0740  144.6276  162.0954 C.ar    1  UNL1        0.1347
     18 C         138.7578  144.0476  162.5212 C.ar    1  UNL1        0.0238
     19 C         138.6874  143.1465  163.7182 C.ar    1  UNL1        0.0032
     20 C         139.9331  142.8253  164.4896 C.ar    1  UNL1        0.0191
     21 C         141.2493  143.4052  164.0639 C.ar    1  UNL1        0.0989
     22 N         141.3198  144.3064  162.8668 N.ar    1  UNL1       -0.2393
     23 N         140.8994  145.0954  159.6768 N.am    1  UNL1       -0.2748
     24 C         140.1445  145.5287  160.8984 C.2     1  UNL1        0.2668
     25 O         139.4600  146.8633  160.9229 O.2     1  UNL1       -0.2683
     26 C         140.1097  145.7213  157.2821 C.3     1  UNL1        0.0233
     27 C         140.9699  145.9965  158.4798 C.3     1  UNL1        0.0938
     28 C         141.5839  143.7609  159.6523 C.3     1  UNL1        0.0938
     29 C         140.8478  142.5493  159.1624 C.3     1  UNL1        0.0233
@<TRIPOS>BOND
     1    26    27    1
     2    27    23    1
     3    23    28    1
     4    28    29    1
     5    23    24   am
     6    24    25    2
     7    24    17    1
     8    17    18   ar
     9    18    19   ar
    10    19    20   ar
    11    20     1    1
    12     1     2    2
    13     2     3    1
    14     3     4    1
    15     4     5    1
    16     5     6    1
    17     6     7    1
    18     7     8    1
    19     3     9    1
    20     9    10    1
    21    10    11   ar
    22    11    12   ar
    23    12    13   ar
    24    13    14   ar
    25    14    15   ar
    26    20    21   ar
    27    21    22   ar
    28    22    17   ar
    29    15     1    1
    30     8     3    1
    31    15    10   ar
    32     6    16    1
@<TRIPOS>MOLECULE
*****
 29 32 0 0 0
SMALL
GASTEIGER

@<TRIPOS>ATOM
      1 C         140.4192  141.8832  163.5215 C.2     1  UNL1        0.0035
      2 C         139.6127  141.0506  164.4735 C.2     1  UNL1        0.0130
      3 C         140.0848  140.8545  165.8837 C.3     1  UNL1        0.1542
      4 C         138.8062  140.2179  165.4255 C.3     1  UNL1        0.0614
      5 C         137.9997  139.3853  166.3774 C.3     1  UNL1        0.0725
      6 N         138.4718  139.1892  167.7876 N.3     1  UNL1       -0.2972
      7 C         139.7504  139.8257  168.2459 C.3     1  UNL1        0.0725
      8 C         140.5569  140.6583  167.2939 C.3     1  UNL1        0.0614
      9 O         141.3635  141.4910  166.3419 O.3     1  UNL1       -0.4785
     10 C         142.1699  142.3236  165.3899 C.ar    1  UNL1        0.1386
     11 C         143.4486  142.9602  165.8481 C.ar    1  UNL1        0.0369
     12 C         144.2551  143.7928  164.8961 C.ar    1  UNL1        0.0031
     13 C         143.7829  143.9889  163.4859 C.ar    1  UNL1        0.0002
     14 C         142.5044  143.3524  163.0277 C.ar    1  UNL1        0.0030
     15 C         141.6978  142.5197  163.9797 C.ar    1  UNL1        0.0338
     16 H         138.5773  138.1841  167.9258 H       1  UNL1        0.1233
     17 C         139.0028  142.4715  159.2909 C.ar    1  UNL1        0.1347
     18 C         140.0104  141.4051  159.6031 C.ar    1  UNL1        0.0238
     19 C         140.4825  141.2090  161.0133 C.ar    1  UNL1        0.0032
     20 C         139.9471  142.0793  162.1113 C.ar    1  UNL1        0.0191
     21 C         138.9395  143.1459  161.7992 C.ar    1  UNL1        0.0989
     22 N         138.4674  143.3420  160.3890 N.ar    1  UNL1       -0.2393
     23 N         139.2411  143.6335  156.9794 N.am    1  UNL1       -0.2748
     24 C         138.5307  142.6676  157.8807 C.2     1  UNL1        0.2668
     25 O         137.3481  141.8978  157.3718 O.2     1  UNL1       -0.2683
     26 C         137.6616  144.7983  155.2769 C.3     1  UNL1        0.0233
     27 C         138.7690  143.8296  155.5692 C.3     1  UNL1        0.0938
     28 C         140.4237  144.4033  157.4883 C.3     1  UNL1        0.0938
     29 C         140.2987  145.8715  157.7687 C.3     1  UNL1        0.0233
@<TRIPOS>BOND
     1    26    27    1
     2    27    23    1
     3    23    28    1
     4    28    29    1
     5    23    24   am
     6    24    25    2
     7    24    17    1
     8    17    18   ar
     9    18    19   ar
    10    19    20   ar
    11    20     1    1
    12     1     2    2
    13     2     3    1
    14     3     4    1
    15     4     5    1
    16     5     6    1
    17     6     7    1
    18     7     8    1
    19     3     9    1
    20     9    10    1
    21    10    11   ar
    22    11    12   ar
    23    12    13   ar
    24    13    14   ar
    25    14    15   ar
    26    20    21   ar
    27    21    22   ar
    28    22    17   ar
    29    15     1    1
    30     8     3    1
    31    15    10   ar
    32     6    16    1
@<TRIPOS>MOLECULE
*****
 29 32 0 0 0
SMALL
GASTEIGER

@<TRIPOS>ATOM
      1 C         140.3003  142.3195  161.3268 C.2     1  UNL1        0.0035
      2 C         141.7765  142.0532  161.3354 C.2     1  UNL1        0.0130
      3 C         142.6133  142.5050  162.4954 C.3     1  UNL1        0.1542
      4 C         143.2526  141.7870  161.3441 C.3     1  UNL1        0.0614
      5 C         144.7288  141.5207  161.3527 C.3     1  UNL1        0.0725
      6 N         145.5656  141.9726  162.5127 N.3     1  UNL1       -0.2972
      7 C         144.9263  142.6907  163.6640 C.3     1  UNL1        0.0725
      8 C         143.4502  142.9569  163.6554 C.3     1  UNL1        0.0614
      9 O         141.9739  143.2232  163.6468 O.3     1  UNL1       -0.4785
     10 C         140.4978  143.4894  163.6381 C.ar    1  UNL1        0.1386
     11 C         139.8584  144.2075  164.7895 C.ar    1  UNL1        0.0369
     12 C         138.3823  144.4737  164.7808 C.ar    1  UNL1        0.0031
     13 C         137.5455  144.0219  163.6208 C.ar    1  UNL1        0.0002
     14 C         138.1848  143.3038  162.4695 C.ar    1  UNL1        0.0030
     15 C         139.6610  143.0376  162.4781 C.ar    1  UNL1        0.0338
     16 H         146.2788  142.5968  162.1358 H       1  UNL1        0.1233
     17 C         137.7899  140.9639  157.8468 C.ar    1  UNL1        0.1347
     18 C         138.2697  142.3833  157.9176 C.ar    1  UNL1        0.0238
     19 C         139.1065  142.8352  159.0776 C.ar    1  UNL1        0.0032
     20 C         139.4635  141.8676  160.1668 C.ar    1  UNL1        0.0191
     21 C         138.9837  140.4482  160.0960 C.ar    1  UNL1        0.0989
     22 N         138.1468  139.9963  158.9360 N.ar    1  UNL1       -0.2393
     23 N         137.6123  139.9904  155.4446 N.am    1  UNL1       -0.2748
     24 C         136.9530  140.5121  156.6868 C.2     1  UNL1        0.2668
     25 O         135.4569  140.5820  156.7691 O.2     1  UNL1       -0.2683
     26 C         136.5005  138.0779  154.0821 C.3     1  UNL1        0.0233
     27 C         136.7755  139.5386  154.2846 C.3     1  UNL1        0.0938
     28 C         139.1085  139.9205  155.3623 C.3     1  UNL1        0.0938
     29 C         139.8243  138.6670  155.7700 C.3     1  UNL1        0.0233
@<TRIPOS>BOND
     1    26    27    1
     2    27    23    1
     3    23    28    1
     4    28    29    1
     5    23    24   am
     6    24    25    2
     7    24    17    1
     8    17    18   ar
     9    18    19   ar
    10    19    20   ar
    11    20     1    1
    12     1     2    2
    13     2     3    1
    14     3     4    1
    15     4     5    1
    16     5     6    1
    17     6     7    1
    18     7     8    1
    19     3     9    1
    20     9    10    1
    21    10    11   ar
    22    11    12   ar
    23    12    13   ar
    24    13    14   ar
    25    14    15   ar
    26    20    21   ar
    27    21    22   ar
    28    22    17   ar
    29    15     1    1
    30     8     3    1
    31    15    10   ar
    32     6    16    1
@<TRIPOS>MOLECULE
*****
 29 32 0 0 0
SMALL
GASTEIGER

@<TRIPOS>ATOM
      1 C         140.2548  140.3603  162.5050 C.2     1  UNL1        0.0035
      2 C         140.2579  141.8590  162.5684 C.2     1  UNL1        0.0130
      3 C         139.6446  142.5611  163.7436 C.3     1  UNL1        0.1542
      4 C         140.2610  143.3576  162.6320 C.3     1  UNL1        0.0614
      5 C         140.2640  144.8562  162.6955 C.3     1  UNL1        0.0725
      6 N         139.6507  145.5583  163.8706 N.3     1  UNL1       -0.2972
      7 C         139.0344  144.7618  164.9822 C.3     1  UNL1        0.0725
      8 C         139.0313  143.2632  164.9187 C.3     1  UNL1        0.0614
      9 O         139.0282  141.7645  164.8552 O.3     1  UNL1       -0.4785
     10 C         139.0252  140.2659  164.7916 C.ar    1  UNL1        0.1386
     11 C         138.4088  139.4693  165.9033 C.ar    1  UNL1        0.0369
     12 C         138.4058  137.9707  165.8397 C.ar    1  UNL1        0.0031
     13 C         139.0190  137.2686  164.6646 C.ar    1  UNL1        0.0002
     14 C         139.6354  138.0651  163.5530 C.ar    1  UNL1        0.0030
     15 C         139.6385  139.5638  163.6165 C.ar    1  UNL1        0.0338
     16 H         138.9183  146.1649  163.5018 H       1  UNL1        0.1233
     17 C         142.0947  138.2539  158.9796 C.ar    1  UNL1        0.1347
     18 C         140.6280  138.5682  158.9837 C.ar    1  UNL1        0.0238
     19 C         140.0147  139.2703  160.1588 C.ar    1  UNL1        0.0032
     20 C         140.8681  139.6581  161.3298 C.ar    1  UNL1        0.0191
     21 C         142.3349  139.3438  161.3258 C.ar    1  UNL1        0.0989
     22 N         142.9481  138.6417  160.1507 N.ar    1  UNL1       -0.2393
     23 N         143.2441  138.3475  156.6515 N.am    1  UNL1       -0.2748
     24 C         142.7080  137.5518  157.8045 C.2     1  UNL1        0.2668
     25 O         142.7851  136.0539  157.7824 O.2     1  UNL1       -0.2683
     26 C         142.9809  137.0932  154.3915 C.3     1  UNL1        0.0233
     27 C         143.8574  137.6453  155.4764 C.3     1  UNL1        0.0938
     28 C         143.1670  139.8454  156.6736 C.3     1  UNL1        0.0938
     29 C         144.3418  140.6500  157.1450 C.3     1  UNL1        0.0233
@<TRIPOS>BOND
     1    26    27    1
     2    27    23    1
     3    23    28    1
     4    28    29    1
     5    23    24   am
     6    24    25    2
     7    24    17    1
     8    17    18   ar
     9    18    19   ar
    10    19    20   ar
    11    20     1    1
    12     1     2    2
    13     2     3    1
    14     3     4    1
    15     4     5    1
    16     5     6    1
    17     6     7    1
    18     7     8    1
    19     3     9    1
    20     9    10    1
    21    10    11   ar
    22    11    12   ar
    23    12    13   ar
    24    13    14   ar
    25    14    15   ar
    26    20    21   ar
    27    21    22   ar
    28    22    17   ar
    29    15     1    1
    30     8     3    1
    31    15    10   ar
    32     6    16    1
@<TRIPOS>MOLECULE
*****
 29 32 0 0 0
SMALL
GASTEIGER

@<TRIPOS>ATOM
      1 C         140.3932  140.9605  163.4437 C.2     1  UNL1        0.0035
      2 C         141.2708  140.0958  164.2995 C.2     1  UNL1        0.0130
      3 C         141.5390  140.4779  165.7250 C.3     1  UNL1        0.1542
      4 C         142.1483  139.2313  165.1552 C.3     1  UNL1        0.0614
      5 C         143.0259  138.3667  166.0110 C.3     1  UNL1        0.0725
      6 N         143.2941  138.7487  167.4365 N.3     1  UNL1       -0.2972
      7 C         142.6848  139.9953  168.0063 C.3     1  UNL1        0.0725
      8 C         141.8072  140.8599  167.1505 C.3     1  UNL1        0.0614
      9 O         140.9296  141.7245  166.2948 O.3     1  UNL1       -0.4785
     10 C         140.0521  142.5891  165.4390 C.ar    1  UNL1        0.1386
     11 C         139.4427  143.8358  166.0088 C.ar    1  UNL1        0.0369
     12 C         138.5652  144.7004  165.1530 C.ar    1  UNL1        0.0031
     13 C         138.2970  144.3184  163.7275 C.ar    1  UNL1        0.0002
     14 C         138.9063  143.0718  163.1577 C.ar    1  UNL1        0.0030
     15 C         139.7839  142.2071  164.0135 C.ar    1  UNL1        0.0338
     16 H         144.3052  138.8458  167.5301 H       1  UNL1        0.1233
     17 C         139.5885  139.8144  159.1671 C.ar    1  UNL1        0.1347
     18 C         140.5945  140.8818  159.4810 C.ar    1  UNL1        0.0238
     19 C         140.8627  141.2638  160.9065 C.ar    1  UNL1        0.0032
     20 C         140.1249  140.5785  162.0182 C.ar    1  UNL1        0.0191
     21 C         139.1189  139.5110  161.7044 C.ar    1  UNL1        0.0989
     22 N         138.8506  139.1290  160.2789 N.ar    1  UNL1       -0.2393
     23 N         140.2413  138.4837  157.0334 N.am    1  UNL1       -0.2748
     24 C         139.3202  139.4324  157.7416 C.2     1  UNL1        0.2668
     25 O         138.1309  139.9992  157.0244 O.2     1  UNL1       -0.2683
     26 C         139.0123  136.9925  155.2967 C.3     1  UNL1        0.0233
     27 C         139.9730  138.1017  155.6078 C.3     1  UNL1        0.0938
     28 C         141.4306  137.9170  157.7506 C.3     1  UNL1        0.0938
     29 C         142.5107  137.2201  156.9776 C.3     1  UNL1        0.0233
@<TRIPOS>BOND
     1    26    27    1
     2    27    23    1
     3    23    28    1
     4    28    29    1
     5    23    24   am
     6    24    25    2
     7    24    17    1
     8    17    18   ar
     9    18    19   ar
    10    19    20   ar
    11    20     1    1
    12     1     2    2
    13     2     3    1
    14     3     4    1
    15     4     5    1
    16     5     6    1
    17     6     7    1
    18     7     8    1
    19     3     9    1
    20     9    10    1
    21    10    11   ar
    22    11    12   ar
    23    12    13   ar
    24    13    14   ar
    25    14    15   ar
    26    20    21   ar
    27    21    22   ar
    28    22    17   ar
    29    15     1    1
    30     8     3    1
    31    15    10   ar
    32     6    16    1
@<TRIPOS>MOLECULE
*****
 29 32 0 0 0
SMALL
GASTEIGER

@<TRIPOS>ATOM
      1 C         142.0952  139.6514  162.1631 C.2     1  UNL1        0.0035
      2 C         143.0241  140.6706  162.7537 C.2     1  UNL1        0.0130
      3 C         142.8206  141.1434  164.1626 C.3     1  UNL1        0.1542
      4 C         143.9528  141.6896  163.3443 C.3     1  UNL1        0.0614
      5 C         144.8816  142.7087  163.9349 C.3     1  UNL1        0.0725
      6 N         144.6781  143.1816  165.3437 N.3     1  UNL1       -0.2972
      7 C         143.5459  142.6354  166.1621 C.3     1  UNL1        0.0725
      8 C         142.6171  141.6163  165.5715 C.3     1  UNL1        0.0614
      9 O         141.6883  140.5972  164.9809 O.3     1  UNL1       -0.4785
     10 C         140.7596  139.5781  164.3903 C.ar    1  UNL1        0.1386
     11 C         139.6273  139.0318  165.2087 C.ar    1  UNL1        0.0369
     12 C         138.6985  138.0127  164.6181 C.ar    1  UNL1        0.0031
     13 C         138.9020  137.5399  163.2092 C.ar    1  UNL1        0.0002
     14 C         140.0342  138.0861  162.3909 C.ar    1  UNL1        0.0030
     15 C         140.9630  139.1052  162.9814 C.ar    1  UNL1        0.0338
     16 H         144.5484  144.1924  165.2993 H       1  UNL1        0.1233
     17 C         142.7056  138.2328  157.9364 C.ar    1  UNL1        0.1347
     18 C         142.0617  139.5624  158.1957 C.ar    1  UNL1        0.0238
     19 C         141.8582  140.0353  159.6045 C.ar    1  UNL1        0.0032
     20 C         142.2987  139.1785  160.7542 C.ar    1  UNL1        0.0191
     21 C         142.9427  137.8488  160.4951 C.ar    1  UNL1        0.0989
     22 N         143.1462  137.3759  159.0862 N.ar    1  UNL1       -0.2393
     23 N         141.7596  137.1808  155.7574 N.am    1  UNL1       -0.2748
     24 C         142.9091  137.7599  156.5275 C.2     1  UNL1        0.2668
     25 O         144.2622  137.8661  155.8888 O.2     1  UNL1       -0.2683
     26 C         142.1841  135.2504  154.0711 C.3     1  UNL1        0.0233
     27 C         141.9630  136.7079  154.3485 C.3     1  UNL1        0.0938
     28 C         140.4065  137.0746  156.3961 C.3     1  UNL1        0.0938
     29 C         139.1726  137.0714  155.5432 C.3     1  UNL1        0.0233
@<TRIPOS>BOND
     1    26    27    1
     2    27    23    1
     3    23    28    1
     4    28    29    1
     5    23    24   am
     6    24    25    2
     7    24    17    1
     8    17    18   ar
     9    18    19   ar
    10    19    20   ar
    11    20     1    1
    12     1     2    2
    13     2     3    1
    14     3     4    1
    15     4     5    1
    16     5     6    1
    17     6     7    1
    18     7     8    1
    19     3     9    1
    20     9    10    1
    21    10    11   ar
    22    11    12   ar
    23    12    13   ar
    24    13    14   ar
    25    14    15   ar
    26    20    21   ar
    27    21    22   ar
    28    22    17   ar
    29    15     1    1
    30     8     3    1
    31    15    10   ar
    32     6    16    1
@<TRIPOS>MOLECULE
*****
 29 32 0 0 0
SMALL
GASTEIGER

@<TRIPOS>ATOM
      1 C         141.8270  141.4425  161.7566 C.2     1  UNL1        0.0035
      2 C         140.5051  142.0977  162.0274 C.2     1  UNL1        0.0130
      3 C         140.3687  143.0716  163.1600 C.3     1  UNL1        0.1542
      4 C         139.1832  142.7529  162.2982 C.3     1  UNL1        0.0614
      5 C         137.8613  143.4080  162.5690 C.3     1  UNL1        0.0725
      6 N         137.7250  144.3819  163.7016 N.3     1  UNL1       -0.2972
      7 C         138.9106  144.7007  164.5635 C.3     1  UNL1        0.0725
      8 C         140.2324  144.0455  164.2927 C.3     1  UNL1        0.0614
      9 O         141.5544  143.3903  164.0219 O.3     1  UNL1       -0.4785
     10 C         142.8762  142.7351  163.7511 C.ar    1  UNL1        0.1386
     11 C         144.0619  143.0539  164.6130 C.ar    1  UNL1        0.0369
     12 C         145.3837  142.3987  164.3422 C.ar    1  UNL1        0.0031
     13 C         145.5201  141.4248  163.2095 C.ar    1  UNL1        0.0002
     14 C         144.3345  141.1061  162.3477 C.ar    1  UNL1        0.0030
     15 C         143.0126  141.7612  162.6184 C.ar    1  UNL1        0.0338
     16 H         137.0016  144.0150  164.3200 H       1  UNL1        0.1233
     17 C         142.2360  138.5208  158.3586 C.ar    1  UNL1        0.1347
     18 C         142.3817  139.9919  158.1045 C.ar    1  UNL1        0.0238
     19 C         142.2454  140.9658  159.2371 C.ar    1  UNL1        0.0032
     20 C         141.9633  140.4686  160.6239 C.ar    1  UNL1        0.0191
     21 C         141.8176  138.9974  160.8781 C.ar    1  UNL1        0.0989
     22 N         141.9539  138.0235  159.7455 N.ar    1  UNL1       -0.2393
     23 N         141.1563  137.1026  156.4684 N.am    1  UNL1       -0.2748
     24 C         142.3723  137.5469  157.2260 C.2     1  UNL1        0.2668
     25 O         143.7247  137.0172  156.8509 O.2     1  UNL1       -0.2683
     26 C         141.6671  136.6170  153.9677 C.3     1  UNL1        0.0233
     27 C         141.2926  136.1287  155.3357 C.3     1  UNL1        0.0938
     28 C         139.8039  137.6323  156.8434 C.3     1  UNL1        0.0938
     29 C         139.2249  138.8017  156.1038 C.3     1  UNL1        0.0233
@<TRIPOS>BOND
     1    26    27    1
     2    27    23    1
     3    23    28    1
     4    28    29    1
     5    23    24   am
     6    24    25    2
     7    24    17    1
     8    17    18   ar
     9    18    19   ar
    10    19    20   ar
    11    20     1    1
    12     1     2    2
    13     2     3    1
    14     3     4    1
    15     4     5    1
    16     5     6    1
    17     6     7    1
    18     7     8    1
    19     3     9    1
    20     9    10    1
    21    10    11   ar
    22    11    12   ar
    23    12    13   ar
    24    13    14   ar
    25    14    15   ar
    26    20    21   ar
    27    21    22   ar
    28    22    17   ar
    29    15     1    1
    30     8     3    1
    31    15    10   ar
    32     6    16    1
