@<TRIPOS>MOLECULE
*****
 31 34 0 0 0
SMALL
GASTEIGER

@<TRIPOS>ATOM
      1 C         139.0039  139.2370  166.3757 C.3     1  UNL1        0.0036
      2 C         140.1857  140.0434  166.8264 C.3     1  UNL1        0.0382
      3 C         139.1625  139.8092  167.8979 C.3     1  UNL1        0.0037
      4 C         139.3767  140.3663  169.2740 C.3     1  UNL1        0.0057
      5 C         140.6142  141.1574  169.5786 C.3     1  UNL1        0.0669
      6 C         141.6374  141.3916  168.5071 C.3     1  UNL1        0.0058
      7 C         141.4231  140.8345  167.1310 C.3     1  UNL1        0.0050
      8 C         142.2497  140.9017  165.8811 C.3     1  UNL1        0.0198
      9 C         141.5232  140.1521  164.8040 C.3     1  UNL1        0.0978
     10 C         140.2476  139.6216  165.3882 C.3     1  UNL1        0.1801
     11 N         141.9903  139.9656  163.3908 N.3     1  UNL1       -0.2697
     12 C         141.7425  141.0377  162.3714 C.3     1  UNL1        0.0722
     13 C         142.2096  140.8513  160.9582 C.3     1  UNL1        0.0187
     14 C         142.9245  139.5928  160.5644 C.3     1  UNL1        0.0183
     15 C         143.1722  138.5207  161.5838 C.3     1  UNL1        0.0670
     16 N         143.8871  137.2621  161.1901 N.3     1  UNL1       -0.3211
     17 C         142.7051  138.7071  162.9970 C.3     1  UNL1        0.0878
     18 H         143.9679  136.6490  162.0012 H       1  UNL1        0.1189
     19 H         144.8185  137.4939  160.8449 H       1  UNL1        0.1189
     20 C         140.8284  141.7145  170.9548 C.3     1  UNL1        0.3184
     21 F         139.9116  142.7767  171.4850 F       1  UNL1       -0.1984
     22 F         141.9593  141.2092  171.8008 F       1  UNL1       -0.1984
     23 O         139.2150  138.8115  164.6618 O.3     1  UNL1       -0.4778
     24 C         138.8479  139.1573  163.2492 C.ar    1  UNL1        0.1385
     25 C         139.2013  138.2212  162.1317 C.ar    1  UNL1        0.0376
     26 C         138.8342  138.5671  160.7191 C.ar    1  UNL1        0.0134
     27 C         138.1135  139.8491  160.4239 C.ar    1  UNL1        0.0686
     28 C         137.7600  140.7853  161.5413 C.ar    1  UNL1        0.0134
     29 C         138.1272  140.4394  162.9540 C.ar    1  UNL1        0.0376
     30 C         137.7463  140.1950  159.0113 C.1     1  UNL1        0.1004
     31 N         137.3791  140.5408  157.5986 N.1     1  UNL1       -0.1908
@<TRIPOS>BOND
     1     2     1    1
     2     2     3    1
     3     3     4    1
     4     4     5    1
     5     5    20    1
     6    20    21    1
     7    20    22    1
     8     5     6    1
     9     7     6    1
    10     7     8    1
    11     8     9    1
    12     9    11    1
    13    11    12    1
    14    12    13    1
    15    13    14    1
    16    14    15    1
    17    15    16    1
    18    15    17    1
    19     9    10    1
    20    10    23    1
    21    23    24    1
    22    24    25   ar
    23    25    26   ar
    24    26    27   ar
    25    27    30    1
    26    30    31    3
    27    27    28   ar
    28    28    29   ar
    29     7     2    1
    30    17    11    1
    31    29    24   ar
    32    10     2    1
    33    16    18    1
    34    16    19    1
@<TRIPOS>MOLECULE
*****
 31 34 0 0 0
SMALL
GASTEIGER

@<TRIPOS>ATOM
      1 C         140.1245  142.5203  165.5612 C.3     1  UNL1        0.0036
      2 C         141.5002  142.4090  166.1487 C.3     1  UNL1        0.0382
      3 C         140.4198  142.6361  167.1640 C.3     1  UNL1        0.0037
      4 C         140.7670  142.7318  168.6201 C.3     1  UNL1        0.0057
      5 C         142.1948  142.6003  169.0608 C.3     1  UNL1        0.0669
      6 C         143.2752  142.3731  168.0455 C.3     1  UNL1        0.0058
      7 C         142.9280  142.2774  166.5894 C.3     1  UNL1        0.0050
      8 C         143.7717  142.0595  165.3685 C.3     1  UNL1        0.0198
      9 C         142.8655  142.0564  164.1732 C.3     1  UNL1        0.0978
     10 C         141.4616  142.2723  164.6554 C.3     1  UNL1        0.1801
     11 N         143.2888  141.8700  162.7463 N.3     1  UNL1       -0.2697
     12 C         143.6425  143.0618  161.9071 C.3     1  UNL1        0.0722
     13 C         144.0658  142.8755  160.4802 C.3     1  UNL1        0.0187
     14 C         144.1354  141.4972  159.8925 C.3     1  UNL1        0.0183
     15 C         143.7817  140.3053  160.7317 C.3     1  UNL1        0.0670
     16 N         143.8513  138.9269  160.1439 N.3     1  UNL1       -0.3211
     17 C         143.3584  140.4917  162.1586 C.3     1  UNL1        0.0878
     18 H         143.5794  138.2423  160.8495 H       1  UNL1        0.1189
     19 H         144.8046  138.7367  159.8352 H       1  UNL1        0.1189
     20 C         142.5421  142.6959  170.5170 C.3     1  UNL1        0.3184
     21 F         143.4367  143.7970  171.0039 F       1  UNL1       -0.1984
     22 F         141.9946  141.6904  171.4862 F       1  UNL1       -0.1984
     23 O         140.2345  142.3398  163.7953 O.3     1  UNL1       -0.4778
     24 C         140.2584  143.1198  162.5144 C.ar    1  UNL1        0.1385
     25 C         140.1073  142.4105  161.2013 C.ar    1  UNL1        0.0376
     26 C         140.1312  143.1906  159.9204 C.ar    1  UNL1        0.0134
     27 C         140.3062  144.6800  159.9523 C.ar    1  UNL1        0.0686
     28 C         140.4573  145.3894  161.2654 C.ar    1  UNL1        0.0134
     29 C         140.4334  144.6093  162.5463 C.ar    1  UNL1        0.0376
     30 C         140.3301  145.4600  158.6714 C.1     1  UNL1        0.1004
     31 N         140.3540  146.2401  157.3904 N.1     1  UNL1       -0.1908
@<TRIPOS>BOND
     1     2     1    1
     2     2     3    1
     3     3     4    1
     4     4     5    1
     5     5    20    1
     6    20    21    1
     7    20    22    1
     8     5     6    1
     9     7     6    1
    10     7     8    1
    11     8     9    1
    12     9    11    1
    13    11    12    1
    14    12    13    1
    15    13    14    1
    16    14    15    1
    17    15    16    1
    18    15    17    1
    19     9    10    1
    20    10    23    1
    21    23    24    1
    22    24    25   ar
    23    25    26   ar
    24    26    27   ar
    25    27    30    1
    26    30    31    3
    27    27    28   ar
    28    28    29   ar
    29     7     2    1
    30    17    11    1
    31    29    24   ar
    32    10     2    1
    33    16    18    1
    34    16    19    1
@<TRIPOS>MOLECULE
*****
 31 34 0 0 0
SMALL
GASTEIGER

@<TRIPOS>ATOM
      1 C         139.5313  139.5455  165.9960 C.3     1  UNL1        0.0036
      2 C         139.9491  140.9185  166.4324 C.3     1  UNL1        0.0382
      3 C         139.5837  140.0036  167.5635 C.3     1  UNL1        0.0037
      4 C         139.6562  140.4949  168.9788 C.3     1  UNL1        0.0057
      5 C         140.0940  141.9011  169.2631 C.3     1  UNL1        0.0669
      6 C         140.4594  142.8160  168.1320 C.3     1  UNL1        0.0058
      7 C         140.3870  142.3247  166.7167 C.3     1  UNL1        0.0050
      8 C         140.6831  142.9918  165.4062 C.3     1  UNL1        0.0198
      9 C         140.4283  141.9979  164.3121 C.3     1  UNL1        0.0978
     10 C         139.9747  140.7165  164.9463 C.3     1  UNL1        0.1801
     11 N         140.5975  142.2425  162.8418 N.3     1  UNL1       -0.2697
     12 C         141.9680  142.2307  162.2324 C.3     1  UNL1        0.0722
     13 C         142.1372  142.4753  160.7621 C.3     1  UNL1        0.0187
     14 C         140.9358  142.7316  159.9014 C.3     1  UNL1        0.0183
     15 C         139.5653  142.7433  160.5108 C.3     1  UNL1        0.0670
     16 N         138.3638  142.9996  159.6500 N.3     1  UNL1       -0.3211
     17 C         139.3961  142.4987  161.9811 C.3     1  UNL1        0.0878
     18 H         137.5216  142.9715  160.2247 H       1  UNL1        0.1189
     19 H         138.3053  142.2836  158.9259 H       1  UNL1        0.1189
     20 C         140.1664  142.3924  170.6786 C.3     1  UNL1        0.3184
     21 F         139.2032  143.4364  171.1603 F       1  UNL1       -0.1984
     22 F         141.2022  141.8397  171.6122 F       1  UNL1       -0.1984
     23 O         139.6105  139.4547  164.2216 O.3     1  UNL1       -0.4778
     24 C         140.3115  139.0935  162.9457 C.ar    1  UNL1        0.1385
     25 C         139.5517  139.0724  161.6525 C.ar    1  UNL1        0.0376
     26 C         140.2528  138.7112  160.3765 C.ar    1  UNL1        0.0134
     27 C         141.7136  138.3712  160.3937 C.ar    1  UNL1        0.0686
     28 C         142.4735  138.3923  161.6868 C.ar    1  UNL1        0.0134
     29 C         141.7724  138.7535  162.9628 C.ar    1  UNL1        0.0376
     30 C         142.4146  138.0100  159.1177 C.1     1  UNL1        0.1004
     31 N         143.1157  137.6489  157.8418 N.1     1  UNL1       -0.1908
@<TRIPOS>BOND
     1     2     1    1
     2     2     3    1
     3     3     4    1
     4     4     5    1
     5     5    20    1
     6    20    21    1
     7    20    22    1
     8     5     6    1
     9     7     6    1
    10     7     8    1
    11     8     9    1
    12     9    11    1
    13    11    12    1
    14    12    13    1
    15    13    14    1
    16    14    15    1
    17    15    16    1
    18    15    17    1
    19     9    10    1
    20    10    23    1
    21    23    24    1
    22    24    25   ar
    23    25    26   ar
    24    26    27   ar
    25    27    30    1
    26    30    31    3
    27    27    28   ar
    28    28    29   ar
    29     7     2    1
    30    17    11    1
    31    29    24   ar
    32    10     2    1
    33    16    18    1
    34    16    19    1
@<TRIPOS>MOLECULE
*****
 31 34 0 0 0
SMALL
GASTEIGER

@<TRIPOS>ATOM
      1 C         143.6711  142.6583  165.9377 C.3     1  UNL1        0.0036
      2 C         142.2916  142.4879  166.5018 C.3     1  UNL1        0.0382
      3 C         143.3843  142.4042  167.5261 C.3     1  UNL1        0.0037
      4 C         143.0442  142.1685  168.9678 C.3     1  UNL1        0.0057
      5 C         141.6115  142.0166  169.3854 C.3     1  UNL1        0.0669
      6 C         140.5189  142.1002  168.3611 C.3     1  UNL1        0.0058
      7 C         140.8590  142.3359  166.9194 C.3     1  UNL1        0.0050
      8 C         140.0030  142.4643  165.6943 C.3     1  UNL1        0.0198
      9 C         140.9066  142.6956  164.5196 C.3     1  UNL1        0.0978
     10 C         142.3211  142.7102  165.0187 C.3     1  UNL1        0.1801
     11 N         140.4721  142.8800  163.0958 N.3     1  UNL1       -0.2697
     12 C         140.1694  141.6837  162.2431 C.3     1  UNL1        0.0722
     13 C         139.7348  141.8681  160.8193 C.3     1  UNL1        0.0187
     14 C         139.6031  143.2488  160.2482 C.3     1  UNL1        0.0183
     15 C         139.9059  144.4451  161.1008 C.3     1  UNL1        0.0670
     16 N         139.7741  145.8259  160.5297 N.3     1  UNL1       -0.3211
     17 C         140.3404  144.2607  162.5246 C.3     1  UNL1        0.0878
     18 H         140.0172  146.5134  161.2429 H       1  UNL1        0.1189
     19 H         138.8126  145.9775  160.2250 H       1  UNL1        0.1189
     20 C         141.2715  141.7809  170.8273 C.3     1  UNL1        0.3184
     21 F         142.0570  140.7868  171.6302 F       1  UNL1       -0.1984
     22 F         140.1460  142.5393  171.4660 F       1  UNL1       -0.1984
     23 O         143.5494  142.9117  164.1816 O.3     1  UNL1       -0.4778
     24 C         143.6493  142.2700  162.8296 C.ar    1  UNL1        0.1385
     25 C         143.6995  143.1225  161.5965 C.ar    1  UNL1        0.0376
     26 C         143.7994  142.4807  160.2444 C.ar    1  UNL1        0.0134
     27 C         143.8490  140.9863  160.1254 C.ar    1  UNL1        0.0686
     28 C         143.7988  140.1336  161.3585 C.ar    1  UNL1        0.0134
     29 C         143.6989  140.7755  162.7106 C.ar    1  UNL1        0.0376
     30 C         143.9489  140.3444  158.7734 C.1     1  UNL1        0.1004
     31 N         144.0488  139.7025  157.4214 N.1     1  UNL1       -0.1908
@<TRIPOS>BOND
     1     2     1    1
     2     2     3    1
     3     3     4    1
     4     4     5    1
     5     5    20    1
     6    20    21    1
     7    20    22    1
     8     5     6    1
     9     7     6    1
    10     7     8    1
    11     8     9    1
    12     9    11    1
    13    11    12    1
    14    12    13    1
    15    13    14    1
    16    14    15    1
    17    15    16    1
    18    15    17    1
    19     9    10    1
    20    10    23    1
    21    23    24    1
    22    24    25   ar
    23    25    26   ar
    24    26    27   ar
    25    27    30    1
    26    30    31    3
    27    27    28   ar
    28    28    29   ar
    29     7     2    1
    30    17    11    1
    31    29    24   ar
    32    10     2    1
    33    16    18    1
    34    16    19    1
@<TRIPOS>MOLECULE
*****
 31 34 0 0 0
SMALL
GASTEIGER

@<TRIPOS>ATOM
      1 C         143.0783  138.8045  166.0062 C.3     1  UNL1        0.0036
      2 C         141.7574  139.3392  166.4745 C.3     1  UNL1        0.0382
      3 C         142.7606  139.1445  167.5724 C.3     1  UNL1        0.0037
      4 C         142.3968  139.4789  168.9886 C.3     1  UNL1        0.0057
      5 C         141.0298  140.0081  169.3069 C.3     1  UNL1        0.0669
      6 C         140.0266  140.2028  168.2090 C.3     1  UNL1        0.0058
      7 C         140.3904  139.8683  166.7927 C.3     1  UNL1        0.0050
      8 C         139.6168  139.9551  165.5105 C.3     1  UNL1        0.0198
      9 C         140.5057  139.4796  164.3998 C.3     1  UNL1        0.0978
     10 C         141.8286  139.0989  164.9955 C.3     1  UNL1        0.1801
     11 N         140.1365  139.3989  162.9482 N.3     1  UNL1       -0.2697
     12 C         139.6416  138.1059  162.3709 C.3     1  UNL1        0.0722
     13 C         139.2724  138.0252  160.9193 C.3     1  UNL1        0.0187
     14 C         139.3981  139.2375  160.0449 C.3     1  UNL1        0.0183
     15 C         139.8930  140.5304  160.6222 C.3     1  UNL1        0.0670
     16 N         140.0187  141.7428  159.7478 N.3     1  UNL1       -0.3211
     17 C         140.2622  140.6111  162.0738 C.3     1  UNL1        0.0878
     18 H         140.3671  142.5260  160.3006 H       1  UNL1        0.1189
     19 H         139.1050  141.9793  159.3611 H       1  UNL1        0.1189
     20 C         140.6661  140.3426  170.7232 C.3     1  UNL1        0.3184
     21 F         139.7492  139.4407  171.4951 F       1  UNL1       -0.1984
     22 F         141.2193  141.5790  171.3676 F       1  UNL1       -0.1984
     23 O         143.0147  138.5707  164.2443 O.3     1  UNL1       -0.4778
     24 C         143.2719  139.0203  162.8367 C.ar    1  UNL1        0.1385
     25 C         143.6753  140.4392  162.5644 C.ar    1  UNL1        0.0376
     26 C         143.9326  140.8888  161.1566 C.ar    1  UNL1        0.0134
     27 C         143.7864  139.9196  160.0212 C.ar    1  UNL1        0.0686
     28 C         143.3829  138.5007  160.2934 C.ar    1  UNL1        0.0134
     29 C         143.1257  138.0511  161.7011 C.ar    1  UNL1        0.0376
     30 C         144.0436  140.3692  158.6135 C.1     1  UNL1        0.1004
     31 N         144.3009  140.8188  157.2057 N.1     1  UNL1       -0.1908
@<TRIPOS>BOND
     1     2     1    1
     2     2     3    1
     3     3     4    1
     4     4     5    1
     5     5    20    1
     6    20    21    1
     7    20    22    1
     8     5     6    1
     9     7     6    1
    10     7     8    1
    11     8     9    1
    12     9    11    1
    13    11    12    1
    14    12    13    1
    15    13    14    1
    16    14    15    1
    17    15    16    1
    18    15    17    1
    19     9    10    1
    20    10    23    1
    21    23    24    1
    22    24    25   ar
    23    25    26   ar
    24    26    27   ar
    25    27    30    1
    26    30    31    3
    27    27    28   ar
    28    28    29   ar
    29     7     2    1
    30    17    11    1
    31    29    24   ar
    32    10     2    1
    33    16    18    1
    34    16    19    1
@<TRIPOS>MOLECULE
*****
 31 34 0 0 0
SMALL
GASTEIGER

@<TRIPOS>ATOM
      1 C         139.7683  142.5960  165.6373 C.3     1  UNL1        0.0036
      2 C         141.2484  142.5694  165.8796 C.3     1  UNL1        0.0382
      3 C         140.4239  142.4919  167.1303 C.3     1  UNL1        0.0037
      4 C         141.0969  142.3980  168.4675 C.3     1  UNL1        0.0057
      5 C         142.5943  142.3817  168.5541 C.3     1  UNL1        0.0669
      6 C         143.4188  142.4592  167.3034 C.3     1  UNL1        0.0058
      7 C         142.7458  142.5530  165.9661 C.3     1  UNL1        0.0050
      8 C         143.2916  142.6421  164.5718 C.3     1  UNL1        0.0198
      9 C         142.1316  142.7134  163.6235 C.3     1  UNL1        0.0978
     10 C         140.8688  142.6685  164.4318 C.3     1  UNL1        0.1801
     11 N         142.2191  142.8124  162.1293 N.3     1  UNL1       -0.2697
     12 C         142.5098  141.5884  161.3124 C.3     1  UNL1        0.0722
     13 C         142.5973  141.6874  159.8182 C.3     1  UNL1        0.0187
     14 C         142.3940  143.0102  159.1410 C.3     1  UNL1        0.0183
     15 C         142.1033  144.2341  159.9579 C.3     1  UNL1        0.0670
     16 N         141.9000  145.5571  159.2807 N.3     1  UNL1       -0.3211
     17 C         142.0158  144.1352  161.4521 C.3     1  UNL1        0.0878
     18 H         141.7139  146.2733  159.9826 H       1  UNL1        0.1189
     19 H         141.1077  145.4936  158.6414 H       1  UNL1        0.1189
     20 C         143.2673  142.2879  169.8914 C.3     1  UNL1        0.3184
     21 F         144.7487  142.4955  170.0017 F       1  UNL1       -0.1984
     22 F         142.4587  141.9863  171.1183 F       1  UNL1       -0.1984
     23 O         139.4717  142.7146  163.8877 O.3     1  UNL1       -0.4778
     24 C         139.1758  142.1465  162.5315 C.ar    1  UNL1        0.1385
     25 C         138.7842  143.0574  161.4059 C.ar    1  UNL1        0.0376
     26 C         138.4883  142.4893  160.0496 C.ar    1  UNL1        0.0134
     27 C         138.5840  141.0103  159.8187 C.ar    1  UNL1        0.0686
     28 C         138.9756  140.0993  160.9443 C.ar    1  UNL1        0.0134
     29 C         139.2715  140.6675  162.3006 C.ar    1  UNL1        0.0376
     30 C         138.2881  140.4421  158.4624 C.1     1  UNL1        0.1004
     31 N         137.9922  139.8739  157.1061 N.1     1  UNL1       -0.1908
@<TRIPOS>BOND
     1     2     1    1
     2     2     3    1
     3     3     4    1
     4     4     5    1
     5     5    20    1
     6    20    21    1
     7    20    22    1
     8     5     6    1
     9     7     6    1
    10     7     8    1
    11     8     9    1
    12     9    11    1
    13    11    12    1
    14    12    13    1
    15    13    14    1
    16    14    15    1
    17    15    16    1
    18    15    17    1
    19     9    10    1
    20    10    23    1
    21    23    24    1
    22    24    25   ar
    23    25    26   ar
    24    26    27   ar
    25    27    30    1
    26    30    31    3
    27    27    28   ar
    28    28    29   ar
    29     7     2    1
    30    17    11    1
    31    29    24   ar
    32    10     2    1
    33    16    18    1
    34    16    19    1
@<TRIPOS>MOLECULE
*****
 31 34 0 0 0
SMALL
GASTEIGER

@<TRIPOS>ATOM
      1 C         140.3527  144.3897  162.0312 C.3     1  UNL1        0.0036
      2 C         141.1081  143.8282  160.8633 C.3     1  UNL1        0.0382
      3 C         140.4572  145.1515  160.5895 C.3     1  UNL1        0.0037
      4 C         140.5969  145.7910  159.2399 C.3     1  UNL1        0.0057
      5 C         141.3875  145.1072  158.1641 C.3     1  UNL1        0.0669
      6 C         142.0385  143.7839  158.4379 C.3     1  UNL1        0.0058
      7 C         141.8988  143.1444  159.7875 C.3     1  UNL1        0.0050
      8 C         142.4238  141.8553  160.3465 C.3     1  UNL1        0.0198
      9 C         141.9577  141.7423  161.7678 C.3     1  UNL1        0.0978
     10 C         141.1446  142.9616  162.0871 C.3     1  UNL1        0.1801
     11 N         142.2529  140.6090  162.7051 N.3     1  UNL1       -0.2697
     12 C         143.2031  140.8093  163.8483 C.3     1  UNL1        0.0722
     13 C         143.4982  139.6760  164.7856 C.3     1  UNL1        0.0187
     14 C         142.8433  138.3424  164.5796 C.3     1  UNL1        0.0183
     15 C         141.8931  138.1421  163.4364 C.3     1  UNL1        0.0670
     16 N         141.2381  136.8084  163.2304 N.3     1  UNL1       -0.3211
     17 C         141.5979  139.2754  162.4991 C.3     1  UNL1        0.0878
     18 H         140.6287  136.8515  162.4136 H       1  UNL1        0.1189
     19 H         140.6861  136.5699  164.0543 H       1  UNL1        0.1189
     20 C         141.5272  145.7469  156.8145 C.3     1  UNL1        0.3184
     21 F         140.5204  146.7603  156.3570 F       1  UNL1       -0.1984
     22 F         142.6737  145.3730  155.9224 F       1  UNL1       -0.1984
     23 O         140.4838  143.2617  163.3999 O.3     1  UNL1       -0.4778
     24 C         139.8303  142.1598  164.1799 C.ar    1  UNL1        0.1385
     25 C         140.2796  141.8635  165.5800 C.ar    1  UNL1        0.0376
     26 C         139.6260  140.7615  166.3600 C.ar    1  UNL1        0.0134
     27 C         138.5232  139.9558  165.7400 C.ar    1  UNL1        0.0686
     28 C         138.0738  140.2520  164.3399 C.ar    1  UNL1        0.0134
     29 C         138.7274  141.3540  163.5599 C.ar    1  UNL1        0.0376
     30 C         137.8696  138.8538  166.5200 C.1     1  UNL1        0.1004
     31 N         137.2160  137.7518  167.3000 N.1     1  UNL1       -0.1908
@<TRIPOS>BOND
     1     2     1    1
     2     2     3    1
     3     3     4    1
     4     4     5    1
     5     5    20    1
     6    20    21    1
     7    20    22    1
     8     5     6    1
     9     7     6    1
    10     7     8    1
    11     8     9    1
    12     9    11    1
    13    11    12    1
    14    12    13    1
    15    13    14    1
    16    14    15    1
    17    15    16    1
    18    15    17    1
    19     9    10    1
    20    10    23    1
    21    23    24    1
    22    24    25   ar
    23    25    26   ar
    24    26    27   ar
    25    27    30    1
    26    30    31    3
    27    27    28   ar
    28    28    29   ar
    29     7     2    1
    30    17    11    1
    31    29    24   ar
    32    10     2    1
    33    16    18    1
    34    16    19    1
@<TRIPOS>MOLECULE
*****
 31 34 0 0 0
SMALL
GASTEIGER

@<TRIPOS>ATOM
      1 C         138.9522  140.7374  165.7173 C.3     1  UNL1        0.0036
      2 C         140.2457  141.3128  166.2129 C.3     1  UNL1        0.0382
      3 C         139.5909  140.3660  167.1746 C.3     1  UNL1        0.0037
      4 C         140.2373  140.0731  168.4961 C.3     1  UNL1        0.0057
      5 C         141.5384  140.7269  168.8559 C.3     1  UNL1        0.0669
      6 C         142.1932  141.6736  167.8943 C.3     1  UNL1        0.0058
      7 C         141.5469  141.9666  166.5728 C.3     1  UNL1        0.0050
      8 C         141.9536  142.8494  165.4303 C.3     1  UNL1        0.0198
      9 C         140.9038  142.7411  164.3643 C.3     1  UNL1        0.0978
     10 C         139.8483  141.7915  164.8480 C.3     1  UNL1        0.1801
     11 N         140.9087  143.4569  163.0461 N.3     1  UNL1       -0.2697
     12 C         141.7738  142.9600  161.9261 C.3     1  UNL1        0.0722
     13 C         141.7787  143.6758  160.6079 C.3     1  UNL1        0.0187
     14 C         140.9185  144.8884  160.4097 C.3     1  UNL1        0.0183
     15 C         140.0534  145.3854  161.5298 C.3     1  UNL1        0.0670
     16 N         139.1931  146.5981  161.3317 N.3     1  UNL1       -0.3211
     17 C         140.0485  144.6696  162.8480 C.3     1  UNL1        0.0878
     18 H         138.6760  146.7920  162.1893 H       1  UNL1        0.1189
     19 H         138.5364  146.4284  160.5698 H       1  UNL1        0.1189
     20 C         142.1848  140.4339  170.1775 C.3     1  UNL1        0.3184
     21 F         142.1522  141.4590  171.2720 F       1  UNL1       -0.1984
     22 F         142.8637  139.1157  170.4045 F       1  UNL1       -0.1984
     23 O         138.6123  141.3908  164.0985 O.3     1  UNL1       -0.4778
     24 C         138.7142  140.9351  162.6731 C.ar    1  UNL1        0.1385
     25 C         138.1429  141.7797  161.5730 C.ar    1  UNL1        0.0376
     26 C         138.2448  141.3239  160.1475 C.ar    1  UNL1        0.0134
     27 C         138.9180  140.0236  159.8222 C.ar    1  UNL1        0.0686
     28 C         139.4894  139.1789  160.9223 C.ar    1  UNL1        0.0134
     29 C         139.3875  139.6347  162.3477 C.ar    1  UNL1        0.0376
     30 C         139.0199  139.5678  158.3967 C.1     1  UNL1        0.1004
     31 N         139.1219  139.1120  156.9713 N.1     1  UNL1       -0.1908
@<TRIPOS>BOND
     1     2     1    1
     2     2     3    1
     3     3     4    1
     4     4     5    1
     5     5    20    1
     6    20    21    1
     7    20    22    1
     8     5     6    1
     9     7     6    1
    10     7     8    1
    11     8     9    1
    12     9    11    1
    13    11    12    1
    14    12    13    1
    15    13    14    1
    16    14    15    1
    17    15    16    1
    18    15    17    1
    19     9    10    1
    20    10    23    1
    21    23    24    1
    22    24    25   ar
    23    25    26   ar
    24    26    27   ar
    25    27    30    1
    26    30    31    3
    27    27    28   ar
    28    28    29   ar
    29     7     2    1
    30    17    11    1
    31    29    24   ar
    32    10     2    1
    33    16    18    1
    34    16    19    1
@<TRIPOS>MOLECULE
*****
 31 34 0 0 0
SMALL
GASTEIGER

@<TRIPOS>ATOM
      1 C         141.5685  143.8618  162.4702 C.3     1  UNL1        0.0036
      2 C         140.7143  143.3640  161.3421 C.3     1  UNL1        0.0382
      3 C         141.3509  144.6972  161.0829 C.3     1  UNL1        0.0037
      4 C         141.1048  145.4058  159.7840 C.3     1  UNL1        0.0057
      5 C         140.2222  144.7813  158.7444 C.3     1  UNL1        0.0669
      6 C         139.5856  143.4481  159.0036 C.3     1  UNL1        0.0058
      7 C         139.8316  142.7394  160.3025 C.3     1  UNL1        0.0050
      8 C         139.3444  141.4252  160.8368 C.3     1  UNL1        0.0198
      9 C         139.9259  141.2375  162.2067 C.3     1  UNL1        0.0978
     10 C         140.7725  142.4357  162.5190 C.3     1  UNL1        0.1801
     11 N         139.7004  140.0586  163.1063 N.3     1  UNL1       -0.2697
     12 C         138.6624  140.1274  164.1869 C.3     1  UNL1        0.0722
     13 C         138.4369  138.9485  165.0865 C.3     1  UNL1        0.0187
     14 C         139.2494  137.7007  164.9055 C.3     1  UNL1        0.0183
     15 C         140.2874  137.6319  163.8249 C.3     1  UNL1        0.0670
     16 N         141.1000  136.3840  163.6439 N.3     1  UNL1       -0.3211
     17 C         140.5129  138.8108  162.9253 C.3     1  UNL1        0.0878
     18 H         141.7519  136.5121  162.8699 H       1  UNL1        0.1189
     19 H         140.4794  135.6008  163.4397 H       1  UNL1        0.1189
     20 C         139.9762  145.4901  157.4454 C.3     1  UNL1        0.3184
     21 F         140.0470  144.7327  156.1526 F       1  UNL1       -0.1984
     22 F         139.6594  146.9562  157.4393 F       1  UNL1       -0.1984
     23 O         141.5423  142.6654  163.7858 O.3     1  UNL1       -0.4778
     24 C         142.1821  141.5088  164.4948 C.ar    1  UNL1        0.1385
     25 C         143.3233  140.7751  163.8550 C.ar    1  UNL1        0.0376
     26 C         143.9630  139.6185  164.5642 C.ar    1  UNL1        0.0134
     27 C         143.4617  139.1955  165.9131 C.ar    1  UNL1        0.0686
     28 C         142.3205  139.9292  166.5530 C.ar    1  UNL1        0.0134
     29 C         141.6807  141.0858  165.8439 C.ar    1  UNL1        0.0376
     30 C         144.1014  138.0389  166.6223 C.1     1  UNL1        0.1004
     31 N         144.7412  136.8822  167.3314 N.1     1  UNL1       -0.1908
@<TRIPOS>BOND
     1     2     1    1
     2     2     3    1
     3     3     4    1
     4     4     5    1
     5     5    20    1
     6    20    21    1
     7    20    22    1
     8     5     6    1
     9     7     6    1
    10     7     8    1
    11     8     9    1
    12     9    11    1
    13    11    12    1
    14    12    13    1
    15    13    14    1
    16    14    15    1
    17    15    16    1
    18    15    17    1
    19     9    10    1
    20    10    23    1
    21    23    24    1
    22    24    25   ar
    23    25    26   ar
    24    26    27   ar
    25    27    30    1
    26    30    31    3
    27    27    28   ar
    28    28    29   ar
    29     7     2    1
    30    17    11    1
    31    29    24   ar
    32    10     2    1
    33    16    18    1
    34    16    19    1
