@<TRIPOS>MOLECULE
*****
 35 38 0 0 0
SMALL
GASTEIGER

@<TRIPOS>ATOM
      1 C         141.6230  144.8742  162.7171 C.3     1  UNL1        0.1166
      2 N         141.2650  145.4762  164.0434 N.3     1  UNL1       -0.3162
      3 C         142.3395  144.0450  161.6927 C.3     1  UNL1        0.0739
      4 C         141.8994  144.0788  160.2593 C.3     1  UNL1        0.2039
      5 N         140.7427  144.9417  159.8499 N.pl3   1  UNL1       -0.1931
      6 C         140.0262  145.7709  160.8742 C.3     1  UNL1        0.2039
      7 C         140.4664  145.7371  162.3078 C.3     1  UNL1        0.0739
      8 H         141.8964  145.1190  164.7605 H       1  UNL1        0.1192
      9 H         140.3048  145.2278  164.2815 H       1  UNL1        0.1192
     10 C         140.3025  144.9754  158.4163 C.2     1  UNL1        0.3205
     11 N         140.7320  146.1039  157.5263 N.2     1  UNL1        0.0097
     12 C         140.2919  146.1376  156.0928 C.2     1  UNL1        0.4717
     13 N         139.4222  145.0429  155.5492 N.2     1  UNL1        0.0158
     14 C         138.9928  143.9145  156.4392 C.2     1  UNL1        0.3714
     15 N         138.1434  142.7042  156.1865 N.2     1  UNL1       -0.0339
     16 C         138.0587  141.9225  157.4638 C.2     1  UNL1        0.2323
     17 C         138.8556  142.6496  158.5061 C.2     1  UNL1        0.0486
     18 C         139.4329  143.8808  157.8728 C.3     1  UNL1        0.2428
     19 N         142.6429  142.7324  163.7764 N.am    1  UNL1       -0.3011
     20 C         142.6554  144.2203  163.5870 C.2     1  UNL1        0.2352
     21 O         143.7001  145.0543  164.2674 O.2     1  UNL1       -0.2737
     22 H         141.9572  142.1850  163.3299 H       1  UNL1        0.1497
     23 C         143.6753  142.0784  164.6463 C.3     1  UNL1        0.0955
     24 C         143.2839  141.5141  165.9799 C.ar    1  UNL1       -0.0044
     25 C         143.2296  142.4058  167.1849 C.ar    1  UNL1       -0.0018
     26 C         142.8382  141.8415  168.5184 C.ar    1  UNL1        0.0111
     27 C         142.5011  140.3855  168.6469 C.ar    1  UNL1        0.0577
     28 CL        142.1097  139.8212  169.9805 Cl      1  UNL1       -0.0822
     29 C         142.5554  139.4938  167.4420 C.ar    1  UNL1        0.0111
     30 C         142.9468  140.0581  166.1084 C.ar    1  UNL1       -0.0018
     31 C         145.0990  141.9889  164.1826 C.3     1  UNL1        0.0414
     32 C         145.4027  141.6250  162.7594 C.3     1  UNL1        0.0742
     33 C         144.2408  139.3024  162.6892 C.3     1  UNL1        0.0897
     34 N         144.5489  140.6207  162.0435 N.3     1  UNL1       -0.2703
     35 C         144.0033  140.9349  160.6821 C.3     1  UNL1        0.0897
@<TRIPOS>BOND
     1    33    34    1
     2    34    35    1
     3    34    32    1
     4    32    31    1
     5    31    23    1
     6    23    19    1
     7    19    20   am
     8    20    21    2
     9    20     1    1
    10     1     2    1
    11     1     3    1
    12     3     4    1
    13     4     5    1
    14     5    10    1
    15    10    11    2
    16    11    12    1
    17    12    13    2
    18    13    14    1
    19    14    15    2
    20    15    16    1
    21    16    17    2
    22    17    18    1
    23     5     6    1
    24     6     7    1
    25    23    24    1
    26    24    25   ar
    27    25    26   ar
    28    26    27   ar
    29    27    28    1
    30    27    29   ar
    31    29    30   ar
    32     7     1    1
    33    30    24   ar
    34    18    10    1
    35    18    14    1
    36    19    22    1
    37     2     8    1
    38     2     9    1
@<TRIPOS>MOLECULE
*****
 35 38 0 0 0
SMALL
GASTEIGER

@<TRIPOS>ATOM
      1 C         141.1694  143.5221  163.5500 C.3     1  UNL1        0.1166
      2 N         140.5871  143.9791  164.8546 N.3     1  UNL1       -0.3162
      3 C         141.9690  142.7184  162.5678 C.3     1  UNL1        0.0739
      4 C         141.9407  143.0716  161.1103 C.3     1  UNL1        0.2039
      5 N         141.1127  144.2287  160.6349 N.pl3   1  UNL1       -0.1931
      6 C         140.3131  145.0324  161.6171 C.3     1  UNL1        0.2039
      7 C         140.3415  144.6790  163.0747 C.3     1  UNL1        0.0739
      8 H         140.9282  143.3811  165.6072 H       1  UNL1        0.1192
      9 H         139.5695  143.9234  164.8108 H       1  UNL1        0.1192
     10 C         141.0845  144.5820  159.1774 C.2     1  UNL1        0.3205
     11 N         142.0966  145.5369  158.6174 N.2     1  UNL1        0.0097
     12 C         142.0684  145.8901  157.1599 C.2     1  UNL1        0.4717
     13 N         141.0279  145.2885  156.2623 N.2     1  UNL1        0.0158
     14 C         140.0157  144.3336  156.8224 C.2     1  UNL1        0.3714
     15 N         138.8800  143.5881  156.1866 N.2     1  UNL1       -0.0339
     16 C         138.2063  142.7740  157.2513 C.2     1  UNL1        0.2323
     17 C         138.9257  143.0164  158.5450 C.2     1  UNL1        0.0486
     18 C         140.0440  143.9803  158.2799 C.3     1  UNL1        0.2428
     19 N         141.4420  141.0703  164.3650 N.am    1  UNL1       -0.3011
     20 C         141.7951  142.5238  164.4784 C.2     1  UNL1        0.2352
     21 O         142.7737  142.9789  165.5200 O.2     1  UNL1       -0.2737
     22 H         140.7996  140.7716  163.6814 H       1  UNL1        0.1497
     23 C         142.0677  140.0719  165.2934 C.3     1  UNL1        0.0955
     24 C         141.6289  140.0023  166.7261 C.ar    1  UNL1       -0.0044
     25 C         142.6169  139.6445  167.7965 C.ar    1  UNL1       -0.0018
     26 C         142.1781  139.5748  169.2292 C.ar    1  UNL1        0.0111
     27 C         140.7513  139.8630  169.5914 C.ar    1  UNL1        0.0577
     28 CL        140.3125  139.7933  171.0241 Cl      1  UNL1       -0.0822
     29 C         139.7633  140.2208  168.5210 C.ar    1  UNL1        0.0111
     30 C         140.2020  140.2904  167.0882 C.ar    1  UNL1       -0.0018
     31 C         143.1322  139.1432  164.7890 C.3     1  UNL1        0.0414
     32 C         144.5162  139.6597  164.5286 C.3     1  UNL1        0.0742
     33 C         145.5614  141.7771  163.4454 C.3     1  UNL1        0.0897
     34 N         144.7877  140.4987  163.3153 N.3     1  UNL1       -0.2703
     35 C         144.2855  140.0594  161.9719 C.3     1  UNL1        0.0897
@<TRIPOS>BOND
     1    33    34    1
     2    34    35    1
     3    34    32    1
     4    32    31    1
     5    31    23    1
     6    23    19    1
     7    19    20   am
     8    20    21    2
     9    20     1    1
    10     1     2    1
    11     1     3    1
    12     3     4    1
    13     4     5    1
    14     5    10    1
    15    10    11    2
    16    11    12    1
    17    12    13    2
    18    13    14    1
    19    14    15    2
    20    15    16    1
    21    16    17    2
    22    17    18    1
    23     5     6    1
    24     6     7    1
    25    23    24    1
    26    24    25   ar
    27    25    26   ar
    28    26    27   ar
    29    27    28    1
    30    27    29   ar
    31    29    30   ar
    32     7     1    1
    33    30    24   ar
    34    18    10    1
    35    18    14    1
    36    19    22    1
    37     2     8    1
    38     2     9    1
@<TRIPOS>MOLECULE
*****
 35 38 0 0 0
SMALL
GASTEIGER

@<TRIPOS>ATOM
      1 C         139.7374  142.8221  163.5286 C.3     1  UNL1        0.1166
      2 N         139.1426  143.2807  164.8269 N.3     1  UNL1       -0.3162
      3 C         140.3880  141.9299  162.5133 C.3     1  UNL1        0.0739
      4 C         140.6713  142.4455  161.1336 C.3     1  UNL1        0.2039
      5 N         140.3039  143.8534  160.7689 N.pl3   1  UNL1       -0.1931
      6 C         139.6533  144.7456  161.7841 C.3     1  UNL1        0.2039
      7 C         139.3700  144.2299  163.1639 C.3     1  UNL1        0.0739
      8 H         139.1797  142.5200  165.5054 H       1  UNL1        0.1192
      9 H         138.1719  143.5562  164.6777 H       1  UNL1        0.1192
     10 C         140.5872  144.3690  159.3891 C.2     1  UNL1        0.3205
     11 N         141.6951  145.3562  159.1701 N.2     1  UNL1        0.0097
     12 C         141.9784  145.8718  157.7904 C.2     1  UNL1        0.4717
     13 N         141.1538  145.4002  156.6294 N.2     1  UNL1        0.0158
     14 C         140.0459  144.4130  156.8484 C.2     1  UNL1        0.3714
     15 N         139.0723  143.7713  155.9048 N.2     1  UNL1       -0.0339
     16 C         138.1873  142.8592  156.7014 C.2     1  UNL1        0.2323
     17 C         138.6139  142.9370  158.1374 C.2     1  UNL1        0.0486
     18 C         139.7626  143.8974  158.2282 C.3     1  UNL1        0.2428
     19 N         138.8962  141.2392  165.4091 N.am    1  UNL1       -0.3011
     20 C         139.8982  141.5735  164.3441 C.2     1  UNL1        0.2352
     21 O         141.0609  140.6592  164.0945 O.2     1  UNL1       -0.2737
     22 H         138.1331  141.8393  165.5729 H       1  UNL1        0.1497
     23 C         139.0570  139.9905  166.2247 C.3     1  UNL1        0.0955
     24 C         140.0515  139.9506  167.3469 C.ar    1  UNL1       -0.0044
     25 C         139.6037  140.2070  168.7554 C.ar    1  UNL1       -0.0018
     26 C         140.5982  140.1670  169.8775 C.ar    1  UNL1        0.0111
     27 C         142.0405  139.8707  169.5912 C.ar    1  UNL1        0.0577
     28 CL        143.0351  139.8307  170.7135 Cl      1  UNL1       -0.0822
     29 C         142.4883  139.6142  168.1829 C.ar    1  UNL1        0.0111
     30 C         141.4938  139.6542  167.0606 C.ar    1  UNL1       -0.0018
     31 C         138.2232  138.7819  165.9180 C.3     1  UNL1        0.0414
     32 C         138.8650  137.5546  165.3419 C.3     1  UNL1        0.0742
     33 C         141.0194  137.1758  163.9403 C.3     1  UNL1        0.0897
     34 N         139.5940  137.6334  164.0333 N.3     1  UNL1       -0.2703
     35 C         138.8976  138.1699  162.8179 C.3     1  UNL1        0.0897
@<TRIPOS>BOND
     1    33    34    1
     2    34    35    1
     3    34    32    1
     4    32    31    1
     5    31    23    1
     6    23    19    1
     7    19    20   am
     8    20    21    2
     9    20     1    1
    10     1     2    1
    11     1     3    1
    12     3     4    1
    13     4     5    1
    14     5    10    1
    15    10    11    2
    16    11    12    1
    17    12    13    2
    18    13    14    1
    19    14    15    2
    20    15    16    1
    21    16    17    2
    22    17    18    1
    23     5     6    1
    24     6     7    1
    25    23    24    1
    26    24    25   ar
    27    25    26   ar
    28    26    27   ar
    29    27    28    1
    30    27    29   ar
    31    29    30   ar
    32     7     1    1
    33    30    24   ar
    34    18    10    1
    35    18    14    1
    36    19    22    1
    37     2     8    1
    38     2     9    1
@<TRIPOS>MOLECULE
*****
 35 38 0 0 0
SMALL
GASTEIGER

@<TRIPOS>ATOM
      1 C         139.6134  142.3704  162.4519 C.3     1  UNL1        0.1166
      2 N         138.5267  143.3504  162.7812 N.3     1  UNL1       -0.3162
      3 C         140.5023  141.1660  162.5491 C.3     1  UNL1        0.0739
      4 C         141.5833  140.9477  161.5324 C.3     1  UNL1        0.2039
      5 N         141.7754  141.9338  160.4184 N.pl3   1  UNL1       -0.1931
      6 C         140.8865  143.1381  160.3212 C.3     1  UNL1        0.2039
      7 C         139.8055  143.3563  161.3379 C.3     1  UNL1        0.0739
      8 H         138.0325  143.0415  163.6183 H       1  UNL1        0.1192
      9 H         137.8719  143.4069  162.0012 H       1  UNL1        0.1192
     10 C         142.8565  141.7154  159.4017 C.2     1  UNL1        0.3205
     11 N         143.9214  142.7533  159.2046 N.2     1  UNL1        0.0097
     12 C         145.0024  142.5350  158.1879 C.2     1  UNL1        0.4717
     13 N         145.0186  141.2788  157.3683 N.2     1  UNL1        0.0158
     14 C         143.9537  140.2409  157.5654 C.2     1  UNL1        0.3714
     15 N         143.7119  138.9138  156.9094 N.2     1  UNL1       -0.0339
     16 C         142.4815  138.3120  157.5207 C.2     1  UNL1        0.2323
     17 C         141.9627  139.2671  158.5545 C.2     1  UNL1        0.0486
     18 C         142.8726  140.4593  158.5821 C.3     1  UNL1        0.2428
     19 N         139.8592  140.7286  164.4504 N.am    1  UNL1       -0.3011
     20 C         139.0439  141.7247  163.6802 C.2     1  UNL1        0.2352
     21 O         137.6592  142.0750  164.1384 O.2     1  UNL1       -0.2737
     22 H         140.7680  140.4987  164.1496 H       1  UNL1        0.1497
     23 C         139.2898  140.0829  165.6787 C.3     1  UNL1        0.0955
     24 C         139.6145  140.6347  167.0352 C.ar    1  UNL1       -0.0044
     25 C         140.3887  141.9135  167.1590 C.ar    1  UNL1       -0.0018
     26 C         140.7133  142.4654  168.5154 C.ar    1  UNL1        0.0111
     27 C         140.2638  141.7385  169.7481 C.ar    1  UNL1        0.0577
     28 CL        140.5885  142.2904  171.1046 Cl      1  UNL1       -0.0822
     29 C         139.4896  140.4597  169.6244 C.ar    1  UNL1        0.0111
     30 C         139.1649  139.9078  168.2678 C.ar    1  UNL1       -0.0018
     31 C         138.3957  138.8853  165.5505 C.3     1  UNL1        0.0414
     32 C         138.9027  137.6382  164.8887 C.3     1  UNL1        0.0742
     33 C         138.4414  138.0335  162.3627 C.3     1  UNL1        0.0897
     34 N         139.3907  137.6869  163.4711 N.3     1  UNL1       -0.2703
     35 C         140.8280  137.3890  163.1620 C.3     1  UNL1        0.0897
@<TRIPOS>BOND
     1    33    34    1
     2    34    35    1
     3    34    32    1
     4    32    31    1
     5    31    23    1
     6    23    19    1
     7    19    20   am
     8    20    21    2
     9    20     1    1
    10     1     2    1
    11     1     3    1
    12     3     4    1
    13     4     5    1
    14     5    10    1
    15    10    11    2
    16    11    12    1
    17    12    13    2
    18    13    14    1
    19    14    15    2
    20    15    16    1
    21    16    17    2
    22    17    18    1
    23     5     6    1
    24     6     7    1
    25    23    24    1
    26    24    25   ar
    27    25    26   ar
    28    26    27   ar
    29    27    28    1
    30    27    29   ar
    31    29    30   ar
    32     7     1    1
    33    30    24   ar
    34    18    10    1
    35    18    14    1
    36    19    22    1
    37     2     8    1
    38     2     9    1
@<TRIPOS>MOLECULE
*****
 35 38 0 0 0
SMALL
GASTEIGER

@<TRIPOS>ATOM
      1 C         142.7254  139.4222  163.1324 C.3     1  UNL1        0.1166
      2 N         143.3117  138.7478  164.3371 N.3     1  UNL1       -0.3162
      3 C         141.8371  140.2993  162.3006 C.3     1  UNL1        0.0739
      4 C         142.0219  140.3586  160.8133 C.3     1  UNL1        0.2039
      5 N         143.0950  139.5409  160.1576 N.pl3   1  UNL1       -0.1931
      6 C         143.9833  138.6639  160.9893 C.3     1  UNL1        0.2039
      7 C         143.7985  138.6045  162.4767 C.3     1  UNL1        0.0739
      8 H         142.8124  139.0510  165.1732 H       1  UNL1        0.1192
      9 H         144.2973  138.9973  164.4204 H       1  UNL1        0.1192
     10 C         143.2798  139.6003  158.6702 C.2     1  UNL1        0.3205
     11 N         144.4412  140.3501  158.0880 N.2     1  UNL1        0.0097
     12 C         144.6260  140.4094  156.6007 C.2     1  UNL1        0.4717
     13 N         143.6493  139.7190  155.6954 N.2     1  UNL1        0.0158
     14 C         142.4879  138.9693  156.2775 C.2     1  UNL1        0.3714
     15 N         141.3710  138.1968  155.6405 N.2     1  UNL1       -0.0339
     16 C         140.4959  137.6601  156.7341 C.2     1  UNL1        0.2323
     17 C         141.0720  138.1007  158.0471 C.2     1  UNL1        0.0486
     18 C         142.3031  138.9099  157.7649 C.3     1  UNL1        0.2428
     19 N         141.4388  139.1620  165.3744 N.am    1  UNL1       -0.3011
     20 C         141.8560  140.0057  164.2064 C.2     1  UNL1        0.2352
     21 O         141.4038  141.4328  164.1125 O.2     1  UNL1       -0.2737
     22 H         141.7356  138.2253  165.4360 H       1  UNL1        0.1497
     23 C         140.5693  139.7454  166.4485 C.3     1  UNL1        0.0955
     24 C         141.1684  140.6330  167.4987 C.ar    1  UNL1       -0.0044
     25 C         142.4423  140.2322  168.1819 C.ar    1  UNL1       -0.0018
     26 C         143.0415  141.1197  169.2322 C.ar    1  UNL1        0.0111
     27 C         142.3668  142.4082  169.5993 C.ar    1  UNL1        0.0577
     28 CL        142.9660  143.2958  170.6497 Cl      1  UNL1       -0.0822
     29 C         141.0930  142.8091  168.9162 C.ar    1  UNL1        0.0111
     30 C         140.4938  141.9215  167.8659 C.ar    1  UNL1       -0.0018
     31 C         139.1006  139.4413  166.4722 C.3     1  UNL1        0.0414
     32 C         138.5198  138.4702  165.4873 C.3     1  UNL1        0.0742
     33 C         138.1588  140.1294  163.5210 C.3     1  UNL1        0.0897
     34 N         138.5647  138.7740  164.0191 N.3     1  UNL1       -0.2703
     35 C         139.0154  137.7225  163.0490 C.3     1  UNL1        0.0897
@<TRIPOS>BOND
     1    33    34    1
     2    34    35    1
     3    34    32    1
     4    32    31    1
     5    31    23    1
     6    23    19    1
     7    19    20   am
     8    20    21    2
     9    20     1    1
    10     1     2    1
    11     1     3    1
    12     3     4    1
    13     4     5    1
    14     5    10    1
    15    10    11    2
    16    11    12    1
    17    12    13    2
    18    13    14    1
    19    14    15    2
    20    15    16    1
    21    16    17    2
    22    17    18    1
    23     5     6    1
    24     6     7    1
    25    23    24    1
    26    24    25   ar
    27    25    26   ar
    28    26    27   ar
    29    27    28    1
    30    27    29   ar
    31    29    30   ar
    32     7     1    1
    33    30    24   ar
    34    18    10    1
    35    18    14    1
    36    19    22    1
    37     2     8    1
    38     2     9    1
@<TRIPOS>MOLECULE
*****
 35 38 0 0 0
SMALL
GASTEIGER

@<TRIPOS>ATOM
      1 C         143.6762  140.1446  164.1379 C.3     1  UNL1        0.1166
      2 N         144.6862  139.2036  163.5512 N.3     1  UNL1       -0.3162
      3 C         142.7415  141.3113  164.2612 C.3     1  UNL1        0.0739
      4 C         141.9407  141.5015  165.5151 C.3     1  UNL1        0.2039
      5 N         142.0745  140.5250  166.6459 N.pl3   1  UNL1       -0.1931
      6 C         143.0092  139.3583  166.5227 C.3     1  UNL1        0.2039
      7 C         143.8100  139.1681  165.2686 C.3     1  UNL1        0.0739
      8 H         144.9422  139.5195  162.6158 H       1  UNL1        0.1192
      9 H         144.2863  138.2668  163.4961 H       1  UNL1        0.1192
     10 C         141.2737  140.7152  167.8999 C.2     1  UNL1        0.3205
     11 N         139.9417  140.0417  168.0486 N.2     1  UNL1        0.0097
     12 C         139.1409  140.2319  169.3024 C.2     1  UNL1        0.4717
     13 N         139.6720  141.0957  170.4079 N.2     1  UNL1        0.0158
     14 C         141.0040  141.7692  170.2592 C.2     1  UNL1        0.3714
     15 N         141.7796  142.6721  171.1721 N.2     1  UNL1       -0.0339
     16 C         143.0598  143.0398  170.4823 C.2     1  UNL1        0.2323
     17 C         143.0754  142.3643  169.1431 C.2     1  UNL1        0.0486
     18 C         141.8049  141.5790  169.0053 C.3     1  UNL1        0.2428
     19 N         142.7183  141.1311  161.9336 N.am    1  UNL1       -0.3011
     20 C         143.8931  140.7943  162.8034 C.2     1  UNL1        0.2352
     21 O         145.2845  141.1072  162.3388 O.2     1  UNL1       -0.2737
     22 H         141.8051  140.9258  162.2386 H       1  UNL1        0.1497
     23 C         142.9351  141.7808  160.5991 C.3     1  UNL1        0.0955
     24 C         143.0944  140.9354  159.3704 C.ar    1  UNL1       -0.0044
     25 C         143.7357  141.5104  158.1422 C.ar    1  UNL1       -0.0018
     26 C         143.8950  140.6650  156.9135 C.ar    1  UNL1        0.0111
     27 C         143.4131  139.2445  156.9129 C.ar    1  UNL1        0.0577
     28 CL        143.5724  138.3990  155.6841 Cl      1  UNL1       -0.0822
     29 C         142.7719  138.6694  158.1409 C.ar    1  UNL1        0.0111
     30 C         142.6126  139.5149  159.3697 C.ar    1  UNL1       -0.0018
     31 C         142.9926  143.2760  160.4934 C.3     1  UNL1        0.0414
     32 C         142.1037  144.1235  161.3546 C.3     1  UNL1        0.0742
     33 C         141.5669  144.9654  163.7531 C.3     1  UNL1        0.0897
     34 N         142.5681  144.5571  162.7134 N.3     1  UNL1       -0.2703
     35 C         144.0335  144.5825  163.0325 C.3     1  UNL1        0.0897
@<TRIPOS>BOND
     1    33    34    1
     2    34    35    1
     3    34    32    1
     4    32    31    1
     5    31    23    1
     6    23    19    1
     7    19    20   am
     8    20    21    2
     9    20     1    1
    10     1     2    1
    11     1     3    1
    12     3     4    1
    13     4     5    1
    14     5    10    1
    15    10    11    2
    16    11    12    1
    17    12    13    2
    18    13    14    1
    19    14    15    2
    20    15    16    1
    21    16    17    2
    22    17    18    1
    23     5     6    1
    24     6     7    1
    25    23    24    1
    26    24    25   ar
    27    25    26   ar
    28    26    27   ar
    29    27    28    1
    30    27    29   ar
    31    29    30   ar
    32     7     1    1
    33    30    24   ar
    34    18    10    1
    35    18    14    1
    36    19    22    1
    37     2     8    1
    38     2     9    1
@<TRIPOS>MOLECULE
*****
 35 38 0 0 0
SMALL
GASTEIGER

@<TRIPOS>ATOM
      1 C         141.1415  138.4208  163.4017 C.3     1  UNL1        0.1166
      2 N         141.3920  137.0489  162.8496 N.3     1  UNL1       -0.3162
      3 C         140.6957  139.8512  163.4745 C.3     1  UNL1        0.0739
      4 C         140.8991  140.6370  164.7358 C.3     1  UNL1        0.2039
      5 N         141.5484  139.9924  165.9245 N.pl3   1  UNL1       -0.1931
      6 C         141.9943  138.5621  165.8518 C.3     1  UNL1        0.2039
      7 C         141.7908  137.7763  164.5904 C.3     1  UNL1        0.0739
      8 H         141.0544  137.0024  161.8882 H       1  UNL1        0.1192
      9 H         140.8992  136.3590  163.4167 H       1  UNL1        0.1192
     10 C         141.7519  140.7783  167.1859 C.2     1  UNL1        0.3205
     11 N         142.9797  141.6236  167.3531 N.2     1  UNL1        0.0097
     12 C         143.1832  142.4094  168.6144 C.2     1  UNL1        0.4717
     13 N         142.1588  142.3499  169.7087 N.2     1  UNL1        0.0158
     14 C         140.9311  141.5046  169.5415 C.2     1  UNL1        0.3714
     15 N         139.7574  141.2506  170.4403 N.2     1  UNL1       -0.0339
     16 C         138.8285  140.3078  169.7344 C.2     1  UNL1        0.2323
     17 C         139.4281  139.9791  168.3993 C.2     1  UNL1        0.0486
     18 C         140.7276  140.7188  168.2801 C.3     1  UNL1        0.2428
     19 N         141.1078  139.6672  161.1225 N.am    1  UNL1       -0.3011
     20 C         140.5792  138.5890  162.0213 C.2     1  UNL1        0.2352
     21 O         139.4884  137.6789  161.5397 O.2     1  UNL1       -0.2737
     22 H         141.8238  140.2645  161.4385 H       1  UNL1        0.1497
     23 C         140.5456  139.8354  159.7420 C.3     1  UNL1        0.0955
     24 C         140.8546  138.8244  158.6780 C.ar    1  UNL1       -0.0044
     25 C         142.2373  138.2541  158.5642 C.ar    1  UNL1       -0.0018
     26 C         142.5464  137.2430  157.5001 C.ar    1  UNL1        0.0111
     27 C         141.4727  136.8022  156.5499 C.ar    1  UNL1        0.0577
     28 CL        141.7818  135.7910  155.4859 Cl      1  UNL1       -0.0822
     29 C         140.0900  137.3724  156.6637 C.ar    1  UNL1        0.0111
     30 C         139.7809  138.3835  157.7278 C.ar    1  UNL1       -0.0018
     31 C         139.6743  141.0148  159.4256 C.3     1  UNL1        0.0414
     32 C         138.3849  141.2146  160.1656 C.3     1  UNL1        0.0742
     33 C         137.5136  141.1950  162.6131 C.3     1  UNL1        0.0897
     34 N         138.3970  141.7837  161.5534 N.3     1  UNL1       -0.2703
     35 C         139.2926  142.9414  161.8815 C.3     1  UNL1        0.0897
@<TRIPOS>BOND
     1    33    34    1
     2    34    35    1
     3    34    32    1
     4    32    31    1
     5    31    23    1
     6    23    19    1
     7    19    20   am
     8    20    21    2
     9    20     1    1
    10     1     2    1
    11     1     3    1
    12     3     4    1
    13     4     5    1
    14     5    10    1
    15    10    11    2
    16    11    12    1
    17    12    13    2
    18    13    14    1
    19    14    15    2
    20    15    16    1
    21    16    17    2
    22    17    18    1
    23     5     6    1
    24     6     7    1
    25    23    24    1
    26    24    25   ar
    27    25    26   ar
    28    26    27   ar
    29    27    28    1
    30    27    29   ar
    31    29    30   ar
    32     7     1    1
    33    30    24   ar
    34    18    10    1
    35    18    14    1
    36    19    22    1
    37     2     8    1
    38     2     9    1
@<TRIPOS>MOLECULE
*****
 35 38 0 0 0
SMALL
GASTEIGER

@<TRIPOS>ATOM
      1 C         139.5974  144.2252  163.0575 C.3     1  UNL1        0.1166
      2 N         139.4936  145.1790  164.2105 N.3     1  UNL1       -0.3162
      3 C         139.5174  142.9503  162.2712 C.3     1  UNL1        0.0739
      4 C         139.9306  142.9312  160.8294 C.3     1  UNL1        0.2039
      5 N         140.4238  144.1870  160.1738 N.pl3   1  UNL1       -0.1931
      6 C         140.5037  145.4620  160.9600 C.3     1  UNL1        0.2039
      7 C         140.0905  145.4810  162.4019 C.3     1  UNL1        0.0739
      8 H         139.1372  144.6855  165.0290 H       1  UNL1        0.1192
      9 H         138.8572  145.9382  163.9675 H       1  UNL1        0.1192
     10 C         140.8370  144.1679  158.7320 C.2     1  UNL1        0.3205
     11 N         139.9287  144.7392  157.6838 N.2     1  UNL1        0.0097
     12 C         140.3418  144.7201  156.2421 C.2     1  UNL1        0.4717
     13 N         141.6633  144.1296  155.8482 N.2     1  UNL1        0.0158
     14 C         142.5716  143.5583  156.8964 C.2     1  UNL1        0.3714
     15 N         143.9236  142.9144  156.8101 N.2     1  UNL1       -0.0339
     16 C         144.3460  142.5356  158.1986 C.2     1  UNL1        0.2323
     17 C         143.2551  142.9454  159.1431 C.2     1  UNL1        0.0486
     18 C         142.1584  143.5774  158.3382 C.3     1  UNL1        0.2428
     19 N         139.8557  142.0875  164.5111 N.am    1  UNL1       -0.3011
     20 C         139.0682  143.3007  164.1135 C.2     1  UNL1        0.2352
     21 O         137.7516  143.5892  164.7718 O.2     1  UNL1       -0.2737
     22 H         140.7198  141.8981  164.0790 H       1  UNL1        0.1497
     23 C         139.3265  141.1628  165.5671 C.3     1  UNL1        0.0955
     24 C         139.8210  141.2753  166.9787 C.ar    1  UNL1       -0.0044
     25 C         139.6086  140.1437  167.9402 C.ar    1  UNL1       -0.0018
     26 C         140.1031  140.2562  169.3519 C.ar    1  UNL1        0.0111
     27 C         140.8100  141.5002  169.8020 C.ar    1  UNL1        0.0577
     28 CL        141.3046  141.6126  171.2137 Cl      1  UNL1       -0.0822
     29 C         141.0225  142.6317  168.8406 C.ar    1  UNL1        0.0111
     30 C         140.5280  142.5193  167.4288 C.ar    1  UNL1       -0.0018
     31 C         138.3028  140.1257  165.2113 C.3     1  UNL1        0.0414
     32 C         138.6571  139.0151  164.2672 C.3     1  UNL1        0.0742
     33 C         140.3653  139.2253  162.3211 C.3     1  UNL1        0.0897
     34 N         138.9573  139.3201  162.8296 N.3     1  UNL1       -0.2703
     35 C         137.8496  139.7198  161.9005 C.3     1  UNL1        0.0897
@<TRIPOS>BOND
     1    33    34    1
     2    34    35    1
     3    34    32    1
     4    32    31    1
     5    31    23    1
     6    23    19    1
     7    19    20   am
     8    20    21    2
     9    20     1    1
    10     1     2    1
    11     1     3    1
    12     3     4    1
    13     4     5    1
    14     5    10    1
    15    10    11    2
    16    11    12    1
    17    12    13    2
    18    13    14    1
    19    14    15    2
    20    15    16    1
    21    16    17    2
    22    17    18    1
    23     5     6    1
    24     6     7    1
    25    23    24    1
    26    24    25   ar
    27    25    26   ar
    28    26    27   ar
    29    27    28    1
    30    27    29   ar
    31    29    30   ar
    32     7     1    1
    33    30    24   ar
    34    18    10    1
    35    18    14    1
    36    19    22    1
    37     2     8    1
    38     2     9    1
@<TRIPOS>MOLECULE
*****
 35 38 0 0 0
SMALL
GASTEIGER

@<TRIPOS>ATOM
      1 C         139.4748  144.2524  163.1562 C.3     1  UNL1        0.1166
      2 N         139.1826  145.0695  164.3797 N.3     1  UNL1       -0.3162
      3 C         139.6533  143.0552  162.2702 C.3     1  UNL1        0.0739
      4 C         140.0578  143.2362  160.8373 C.3     1  UNL1        0.2039
      5 N         140.2839  144.6146  160.2901 N.pl3   1  UNL1       -0.1931
      6 C         140.1054  145.8118  161.1760 C.3     1  UNL1        0.2039
      7 C         139.7009  145.6306  162.6091 C.3     1  UNL1        0.0739
      8 H         138.9362  144.4498  165.1515 H       1  UNL1        0.1192
      9 H         138.4046  145.7010  164.1890 H       1  UNL1        0.1192
     10 C         140.6884  144.7956  158.8571 C.2     1  UNL1        0.3205
     11 N         141.8289  145.7055  158.5089 N.2     1  UNL1        0.0097
     12 C         142.2335  145.8866  157.0760 C.2     1  UNL1        0.4717
     13 N         141.4975  145.1577  155.9910 N.2     1  UNL1        0.0158
     14 C         140.3570  144.2477  156.3392 C.2     1  UNL1        0.3714
     15 N         139.4516  143.4038  155.4917 N.2     1  UNL1       -0.0339
     16 C         138.4875  142.7012  156.4011 C.2     1  UNL1        0.2323
     17 C         138.7970  143.1109  157.8105 C.2     1  UNL1        0.0486
     18 C         139.9524  144.0667  157.7722 C.3     1  UNL1        0.2428
     19 N         140.2086  142.1835  164.5459 N.am    1  UNL1       -0.3011
     20 C         139.1473  143.1579  164.1282 C.2     1  UNL1        0.2352
     21 O         137.7587  143.0377  164.6824 O.2     1  UNL1       -0.2737
     22 H         141.1200  142.2625  164.1821 H       1  UNL1        0.1497
     23 C         139.8811  141.0890  165.5179 C.3     1  UNL1        0.0955
     24 C         140.0584  141.3154  166.9900 C.ar    1  UNL1       -0.0044
     25 C         139.7050  140.2304  167.9636 C.ar    1  UNL1       -0.0018
     26 C         139.8822  140.4569  169.4358 C.ar    1  UNL1        0.0111
     27 C         140.4128  141.7683  169.9343 C.ar    1  UNL1        0.0577
     28 CL        140.5901  141.9947  171.4066 Cl      1  UNL1       -0.0822
     29 C         140.7662  142.8533  168.9608 C.ar    1  UNL1        0.0111
     30 C         140.5890  142.6269  167.4885 C.ar    1  UNL1       -0.0018
     31 C         139.3764  139.7679  165.0176 C.3     1  UNL1        0.0414
     32 C         139.9069  139.1995  163.7348 C.3     1  UNL1        0.0742
     33 C         139.2865  138.0186  161.5054 C.3     1  UNL1        0.0897
     34 N         139.0036  139.0621  162.5452 N.3     1  UNL1       -0.2703
     35 C         137.8176  139.9681  162.3953 C.3     1  UNL1        0.0897
@<TRIPOS>BOND
     1    33    34    1
     2    34    35    1
     3    34    32    1
     4    32    31    1
     5    31    23    1
     6    23    19    1
     7    19    20   am
     8    20    21    2
     9    20     1    1
    10     1     2    1
    11     1     3    1
    12     3     4    1
    13     4     5    1
    14     5    10    1
    15    10    11    2
    16    11    12    1
    17    12    13    2
    18    13    14    1
    19    14    15    2
    20    15    16    1
    21    16    17    2
    22    17    18    1
    23     5     6    1
    24     6     7    1
    25    23    24    1
    26    24    25   ar
    27    25    26   ar
    28    26    27   ar
    29    27    28    1
    30    27    29   ar
    31    29    30   ar
    32     7     1    1
    33    30    24   ar
    34    18    10    1
    35    18    14    1
    36    19    22    1
    37     2     8    1
    38     2     9    1
