@<TRIPOS>MOLECULE
*****
 37 42 0 0 0
SMALL
GASTEIGER

@<TRIPOS>ATOM
      1 C         140.6682  145.6278  159.7231 C.3     1  UNL1        0.0824
      2 C         140.0170  145.9494  161.0356 C.3     1  UNL1        0.0843
      3 C         142.3519  140.8982  168.9712 C.ar    1  UNL1        0.2057
      4 N         140.9682  141.3094  168.5631 N.ar    1  UNL1       -0.2121
      5 C         141.0720  142.0713  167.2753 C.ar    1  UNL1        0.1179
      6 C         140.0351  142.7184  166.4056 C.ar    1  UNL1        0.0178
      7 C         140.4461  143.4253  165.1480 C.ar    1  UNL1       -0.0233
      8 C         141.8938  143.4851  164.7602 C.ar    1  UNL1       -0.0256
      9 C         142.9306  142.8380  165.6298 C.ar    1  UNL1        0.0101
     10 C         144.3784  142.8979  165.2419 C.3     1  UNL1        0.0339
     11 C         142.5197  142.1311  166.8874 C.ar    1  UNL1        0.1600
     12 O         143.3107  141.4061  167.9355 O.2     1  UNL1       -0.4387
     13 C         142.5140  144.1336  163.5581 C.3     1  UNL1        0.0431
     14 C         141.8395  144.8825  162.4471 C.3     1  UNL1        0.0768
     15 N         140.3784  145.1677  162.2637 N.3     1  UNL1       -0.2713
     16 C         139.2308  144.7746  163.1461 C.3     1  UNL1        0.0768
     17 C         139.2609  143.9992  164.4297 C.3     1  UNL1        0.0434
     18 C         142.6251  138.6191  170.1882 C.3     1  UNL1        0.0102
     19 C         142.7133  140.1165  170.1994 C.3     1  UNL1        0.0853
     20 S         140.2103  144.4400  158.9297 S.3     1  UNL1       -0.0742
     21 C         139.7239  143.2091  159.6353 C.ar    1  UNL1        0.1933
     22 N         138.2906  142.8084  159.8226 N.ar    1  UNL1       -0.1221
     23 N         138.2664  141.5142  160.5806 N.ar    1  UNL1       -0.1282
     24 C         139.6846  141.1151  160.8619 C.ar    1  UNL1        0.1669
     25 N         140.5854  142.1626  160.2777 N.ar    1  UNL1       -0.2884
     26 C         142.0847  142.1633  160.3271 C.3     1  UNL1        0.1340
     27 C         140.1248  139.8846  161.5981 C.ar    1  UNL1        0.0374
     28 C         141.1233  138.9546  160.9750 C.ar    1  UNL1        0.0031
     29 C         141.5635  137.7241  161.7112 C.ar    1  UNL1        0.0016
     30 C         141.0051  137.4234  163.0705 C.ar    1  UNL1        0.0191
     31 C         140.0065  138.3533  163.6937 C.ar    1  UNL1        0.0810
     32 N         139.4482  138.0526  165.0530 N.ar    1  UNL1       -0.2497
     33 C         138.4497  138.9825  165.6761 C.ar    1  UNL1        0.0593
     34 C         137.8913  138.6818  167.0354 C.3     1  UNL1        0.0521
     35 C         138.0095  140.2130  164.9399 C.ar    1  UNL1        0.0147
     36 C         138.5679  140.5137  163.5806 C.ar    1  UNL1        0.0028
     37 C         139.5664  139.5839  162.9575 C.ar    1  UNL1        0.0206
@<TRIPOS>BOND
     1    18    19    1
     2    19     3    1
     3     3     4   ar
     4     4     5   ar
     5     5     6   ar
     6     6     7   ar
     7     7     8   ar
     8     8     9   ar
     9     9    10    1
    10     9    11   ar
    11    11    12   ar
    12     8    13    1
    13    13    14    1
    14    14    15    1
    15    15     2    1
    16     2     1    1
    17     1    20    1
    18    20    21    1
    19    21    22   ar
    20    22    23   ar
    21    23    24   ar
    22    24    27    1
    23    27    28   ar
    24    28    29   ar
    25    29    30   ar
    26    30    31   ar
    27    31    32   ar
    28    32    33   ar
    29    33    34    1
    30    33    35   ar
    31    35    36   ar
    32    36    37   ar
    33    24    25   ar
    34    25    26    1
    35    15    16    1
    36    16    17    1
    37    12     3   ar
    38    25    21   ar
    39    11     5   ar
    40    37    27   ar
    41    17     7    1
    42    37    31   ar
@<TRIPOS>MOLECULE
*****
 37 42 0 0 0
SMALL
GASTEIGER

@<TRIPOS>ATOM
      1 C         140.5891  145.5610  159.5809 C.3     1  UNL1        0.0824
      2 C         140.0472  145.9928  160.9113 C.3     1  UNL1        0.0843
      3 C         142.3979  141.0789  168.9281 C.ar    1  UNL1        0.2057
      4 N         141.0249  141.5553  168.5567 N.ar    1  UNL1       -0.2121
      5 C         141.1217  142.2673  167.2400 C.ar    1  UNL1        0.1179
      6 C         140.0902  142.9441  166.3867 C.ar    1  UNL1        0.0178
      7 C         140.4916  143.5845  165.0910 C.ar    1  UNL1       -0.0233
      8 C         141.9243  143.5482  164.6487 C.ar    1  UNL1       -0.0256
      9 C         142.9559  142.8715  165.5019 C.ar    1  UNL1        0.0101
     10 C         144.3887  142.8352  165.0595 C.3     1  UNL1        0.0339
     11 C         142.5545  142.2310  166.7976 C.ar    1  UNL1        0.1600
     12 O         143.3433  141.4965  167.8409 O.2     1  UNL1       -0.4387
     13 C         142.5333  144.1202  163.4029 C.3     1  UNL1        0.0431
     14 C         141.8598  144.8697  162.2917 C.3     1  UNL1        0.0768
     15 N         140.4111  145.2323  162.1520 N.3     1  UNL1       -0.2713
     16 C         139.2779  144.9351  163.0889 C.3     1  UNL1        0.0768
     17 C         139.3138  144.2017  164.3969 C.3     1  UNL1        0.0434
     18 C         142.5939  138.8284  170.2114 C.3     1  UNL1        0.0102
     19 C         142.7617  140.3184  170.1688 C.3     1  UNL1        0.0853
     20 S         140.0526  144.3275  158.9171 S.3     1  UNL1       -0.0742
     21 C         140.4364  142.9718  159.4314 C.ar    1  UNL1        0.1933
     22 N         141.6727  142.2064  159.0628 N.ar    1  UNL1       -0.1221
     23 N         141.6515  140.9049  159.8084 N.ar    1  UNL1       -0.1282
     24 C         140.4023  140.8660  160.6377 C.ar    1  UNL1        0.1669
     25 N         139.6513  142.1433  160.4047 N.ar    1  UNL1       -0.2884
     26 C         138.3445  142.5252  161.0345 C.3     1  UNL1        0.1340
     27 C         139.9785  139.7462  161.5413 C.ar    1  UNL1        0.0374
     28 C         138.6973  139.0124  161.2761 C.ar    1  UNL1        0.0031
     29 C         138.2734  137.8927  162.1797 C.ar    1  UNL1        0.0016
     30 C         139.1307  137.5066  163.3484 C.ar    1  UNL1        0.0191
     31 C         140.4120  138.2404  163.6136 C.ar    1  UNL1        0.0810
     32 N         141.2693  137.8544  164.7824 N.ar    1  UNL1       -0.2497
     33 C         142.5504  138.5881  165.0475 C.ar    1  UNL1        0.0593
     34 C         143.4077  138.2020  166.2163 C.3     1  UNL1        0.0521
     35 C         142.9742  139.7078  164.1439 C.ar    1  UNL1        0.0147
     36 C         142.1169  140.0939  162.9752 C.ar    1  UNL1        0.0028
     37 C         140.8358  139.3602  162.7100 C.ar    1  UNL1        0.0206
@<TRIPOS>BOND
     1    18    19    1
     2    19     3    1
     3     3     4   ar
     4     4     5   ar
     5     5     6   ar
     6     6     7   ar
     7     7     8   ar
     8     8     9   ar
     9     9    10    1
    10     9    11   ar
    11    11    12   ar
    12     8    13    1
    13    13    14    1
    14    14    15    1
    15    15     2    1
    16     2     1    1
    17     1    20    1
    18    20    21    1
    19    21    22   ar
    20    22    23   ar
    21    23    24   ar
    22    24    27    1
    23    27    28   ar
    24    28    29   ar
    25    29    30   ar
    26    30    31   ar
    27    31    32   ar
    28    32    33   ar
    29    33    34    1
    30    33    35   ar
    31    35    36   ar
    32    36    37   ar
    33    24    25   ar
    34    25    26    1
    35    15    16    1
    36    16    17    1
    37    12     3   ar
    38    25    21   ar
    39    11     5   ar
    40    37    27   ar
    41    17     7    1
    42    37    31   ar
@<TRIPOS>MOLECULE
*****
 37 42 0 0 0
SMALL
GASTEIGER

@<TRIPOS>ATOM
      1 C         142.9765  140.7454  169.0358 C.3     1  UNL1        0.0824
      2 C         142.3795  142.1014  168.8010 C.3     1  UNL1        0.0843
      3 C         140.7996  145.2015  159.7548 C.ar    1  UNL1        0.2057
      4 N         139.7512  144.9618  160.8005 N.ar    1  UNL1       -0.2121
      5 C         140.4391  144.4893  162.0469 C.ar    1  UNL1        0.1179
      6 C         139.9140  144.1000  163.3970 C.ar    1  UNL1        0.0178
      7 C         140.8626  143.6583  164.4718 C.ar    1  UNL1       -0.0233
      8 C         142.3361  143.6060  164.1965 C.ar    1  UNL1       -0.0256
      9 C         142.8612  143.9954  162.8464 C.ar    1  UNL1        0.0101
     10 C         144.3348  143.9431  162.5712 C.3     1  UNL1        0.0339
     11 C         141.9127  144.4370  161.7716 C.ar    1  UNL1        0.1600
     12 O         142.1355  144.8772  160.3550 O.2     1  UNL1       -0.4387
     13 C         143.4461  143.1983  165.1194 C.3     1  UNL1        0.0431
     14 C         143.3566  142.7422  166.5457 C.3     1  UNL1        0.0768
     15 N         142.1350  142.5812  167.4010 N.3     1  UNL1       -0.2713
     16 C         140.7012  142.8364  167.0416 C.3     1  UNL1        0.0768
     17 C         140.1350  143.3158  165.7380 C.3     1  UNL1        0.0434
     18 C         141.6931  145.7647  157.3811 C.3     1  UNL1        0.0102
     19 C         140.5551  145.6813  158.3548 C.3     1  UNL1        0.0853
     20 S         142.2439  139.5155  168.5875 S.3     1  UNL1       -0.0742
     21 C         142.2095  139.1514  167.1329 C.ar    1  UNL1        0.1933
     22 N         143.3702  138.6607  166.3192 N.ar    1  UNL1       -0.1221
     23 N         142.8864  138.4201  164.9198 N.ar    1  UNL1       -0.1282
     24 C         141.4268  138.7621  164.8687 C.ar    1  UNL1        0.1669
     25 N         141.0085  139.2141  166.2364 N.ar    1  UNL1       -0.2884
     26 C         139.6309  139.6519  166.6373 C.3     1  UNL1        0.1340
     27 C         140.5411  138.6686  163.6617 C.ar    1  UNL1        0.0374
     28 C         139.3135  137.8073  163.6973 C.ar    1  UNL1        0.0031
     29 C         138.4277  137.7138  162.4903 C.ar    1  UNL1        0.0016
     30 C         138.7696  138.4814  161.2478 C.ar    1  UNL1        0.0191
     31 C         139.9973  139.3427  161.2123 C.ar    1  UNL1        0.0810
     32 N         140.3392  140.1103  159.9698 N.ar    1  UNL1       -0.2497
     33 C         141.5668  140.9715  159.9342 C.ar    1  UNL1        0.0593
     34 C         141.9087  141.7391  158.6917 C.3     1  UNL1        0.0521
     35 C         142.4525  141.0650  161.1412 C.ar    1  UNL1        0.0147
     36 C         142.1106  140.2974  162.3837 C.ar    1  UNL1        0.0028
     37 C         140.8830  139.4362  162.4192 C.ar    1  UNL1        0.0206
@<TRIPOS>BOND
     1    18    19    1
     2    19     3    1
     3     3     4   ar
     4     4     5   ar
     5     5     6   ar
     6     6     7   ar
     7     7     8   ar
     8     8     9   ar
     9     9    10    1
    10     9    11   ar
    11    11    12   ar
    12     8    13    1
    13    13    14    1
    14    14    15    1
    15    15     2    1
    16     2     1    1
    17     1    20    1
    18    20    21    1
    19    21    22   ar
    20    22    23   ar
    21    23    24   ar
    22    24    27    1
    23    27    28   ar
    24    28    29   ar
    25    29    30   ar
    26    30    31   ar
    27    31    32   ar
    28    32    33   ar
    29    33    34    1
    30    33    35   ar
    31    35    36   ar
    32    36    37   ar
    33    24    25   ar
    34    25    26    1
    35    15    16    1
    36    16    17    1
    37    12     3   ar
    38    25    21   ar
    39    11     5   ar
    40    37    27   ar
    41    17     7    1
    42    37    31   ar
@<TRIPOS>MOLECULE
*****
 37 42 0 0 0
SMALL
GASTEIGER

@<TRIPOS>ATOM
      1 C         138.1070  138.5043  166.1491 C.3     1  UNL1        0.0824
      2 C         138.7548  137.3674  165.4157 C.3     1  UNL1        0.0843
      3 C         142.7976  138.8755  156.7368 C.ar    1  UNL1        0.2057
      4 N         141.3304  138.9205  157.0459 N.ar    1  UNL1       -0.2121
      5 C         141.1553  138.6289  158.5068 C.ar    1  UNL1        0.1179
      6 C         139.9340  138.5394  159.3731 C.ar    1  UNL1        0.0178
      7 C         140.0716  138.2247  160.8333 C.ar    1  UNL1       -0.0233
      8 C         141.4305  137.9996  161.4271 C.ar    1  UNL1       -0.0256
      9 C         142.6518  138.0891  160.5609 C.ar    1  UNL1        0.0101
     10 C         144.0107  137.8640  161.1548 C.3     1  UNL1        0.0339
     11 C         142.5142  138.4038  159.1007 C.ar    1  UNL1        0.1600
     12 O         143.5292  138.5562  158.0068 O.2     1  UNL1       -0.4387
     13 C         141.7886  137.6767  162.8475 C.3     1  UNL1        0.0431
     14 C         140.8762  137.4993  164.0249 C.3     1  UNL1        0.0768
     15 N         139.3805  137.6008  164.0725 N.3     1  UNL1       -0.2713
     16 C         138.4276  137.9049  162.9547 C.3     1  UNL1        0.0768
     17 C         138.7352  138.1826  161.5131 C.3     1  UNL1        0.0434
     18 C         144.9035  139.3254  155.2833 C.3     1  UNL1        0.0102
     19 C         143.4233  139.1089  155.3937 C.3     1  UNL1        0.0853
     20 S         138.9435  139.6368  166.6666 S.3     1  UNL1       -0.0742
     21 C         139.3375  140.7575  165.7508 C.ar    1  UNL1        0.1933
     22 N         138.3986  141.6840  165.0366 N.ar    1  UNL1       -0.1221
     23 N         139.2205  142.6477  164.2328 N.ar    1  UNL1       -0.1282
     24 C         140.6672  142.3168  164.4504 C.ar    1  UNL1        0.1669
     25 N         140.7395  141.1487  165.3886 N.ar    1  UNL1       -0.2884
     26 C         141.9938  140.4876  165.8785 C.3     1  UNL1        0.1340
     27 C         141.8364  143.0291  163.8374 C.ar    1  UNL1        0.0374
     28 C         142.6896  143.9318  164.6784 C.ar    1  UNL1        0.0031
     29 C         143.8588  144.6441  164.0654 C.ar    1  UNL1        0.0016
     30 C         144.1748  144.4536  162.6115 C.ar    1  UNL1        0.0191
     31 C         143.3215  143.5509  161.7705 C.ar    1  UNL1        0.0810
     32 N         143.6374  143.3605  160.3166 N.ar    1  UNL1       -0.2497
     33 C         142.7842  142.4578  159.4756 C.ar    1  UNL1        0.0593
     34 C         143.1002  142.2674  158.0217 C.3     1  UNL1        0.0521
     35 C         141.6151  141.7456  160.0886 C.ar    1  UNL1        0.0147
     36 C         141.2991  141.9360  161.5426 C.ar    1  UNL1        0.0028
     37 C         142.1523  142.8387  162.3835 C.ar    1  UNL1        0.0206
@<TRIPOS>BOND
     1    18    19    1
     2    19     3    1
     3     3     4   ar
     4     4     5   ar
     5     5     6   ar
     6     6     7   ar
     7     7     8   ar
     8     8     9   ar
     9     9    10    1
    10     9    11   ar
    11    11    12   ar
    12     8    13    1
    13    13    14    1
    14    14    15    1
    15    15     2    1
    16     2     1    1
    17     1    20    1
    18    20    21    1
    19    21    22   ar
    20    22    23   ar
    21    23    24   ar
    22    24    27    1
    23    27    28   ar
    24    28    29   ar
    25    29    30   ar
    26    30    31   ar
    27    31    32   ar
    28    32    33   ar
    29    33    34    1
    30    33    35   ar
    31    35    36   ar
    32    36    37   ar
    33    24    25   ar
    34    25    26    1
    35    15    16    1
    36    16    17    1
    37    12     3   ar
    38    25    21   ar
    39    11     5   ar
    40    37    27   ar
    41    17     7    1
    42    37    31   ar
@<TRIPOS>MOLECULE
*****
 37 42 0 0 0
SMALL
GASTEIGER

@<TRIPOS>ATOM
      1 C         142.1044  138.3758  158.2717 C.3     1  UNL1        0.0824
      2 C         142.6538  137.6396  159.4576 C.3     1  UNL1        0.0843
      3 C         139.7615  140.0106  168.3993 C.ar    1  UNL1        0.2057
      4 N         138.8722  139.8197  167.2065 N.ar    1  UNL1       -0.2121
      5 C         139.7381  139.4613  166.0354 C.ar    1  UNL1        0.1179
      6 C         139.4134  139.1589  164.6025 C.ar    1  UNL1        0.0178
      7 C         140.5134  138.8257  163.6385 C.ar    1  UNL1       -0.0233
      8 C         141.9378  138.7950  164.1074 C.ar    1  UNL1       -0.0256
      9 C         142.2625  139.0974  165.5403 C.ar    1  UNL1        0.0101
     10 C         143.6870  139.0667  166.0092 C.3     1  UNL1        0.0339
     11 C         141.1626  139.4305  166.5043 C.ar    1  UNL1        0.1600
     12 O         141.1770  139.7700  167.9653 O.2     1  UNL1       -0.4387
     13 C         143.1760  138.4890  163.3178 C.3     1  UNL1        0.0431
     14 C         143.2953  138.1381  161.8643 C.3     1  UNL1        0.0768
     15 N         142.2062  138.0066  160.8415 N.3     1  UNL1       -0.2713
     16 C         140.7285  138.1934  161.0194 C.3     1  UNL1        0.0768
     17 C         139.9751  138.5580  162.2642 C.3     1  UNL1        0.0434
     18 C         139.5208  141.7730  170.2931 C.3     1  UNL1        0.0102
     19 C         139.3139  140.3775  169.7832 C.3     1  UNL1        0.0853
     20 S         142.8023  139.6011  157.7603 S.3     1  UNL1       -0.0742
     21 C         142.8740  140.8338  158.6118 C.ar    1  UNL1        0.1933
     22 N         144.1282  141.5050  159.0877 N.ar    1  UNL1       -0.1221
     23 N         143.7333  142.6979  159.9070 N.ar    1  UNL1       -0.1282
     24 C         142.2351  142.7639  159.9374 C.ar    1  UNL1        0.1669
     25 N         141.7040  141.6119  159.1369 N.ar    1  UNL1       -0.2884
     26 C         140.2569  141.2938  158.9026 C.3     1  UNL1        0.1340
     27 C         141.4124  143.8001  160.6441 C.ar    1  UNL1        0.0374
     28 C         140.8885  144.9854  159.8885 C.ar    1  UNL1        0.0031
     29 C         140.0659  146.0216  160.5952 C.ar    1  UNL1        0.0016
     30 C         139.7671  145.8726  162.0576 C.ar    1  UNL1        0.0191
     31 C         140.2909  144.6874  162.8132 C.ar    1  UNL1        0.0810
     32 N         139.9921  144.5384  164.2756 N.ar    1  UNL1       -0.2497
     33 C         140.5160  143.3533  165.0312 C.ar    1  UNL1        0.0593
     34 C         140.2172  143.2043  166.4936 C.3     1  UNL1        0.0521
     35 C         141.3387  142.3171  164.3244 C.ar    1  UNL1        0.0147
     36 C         141.6375  142.4660  162.8621 C.ar    1  UNL1        0.0028
     37 C         141.1136  143.6512  162.1065 C.ar    1  UNL1        0.0206
@<TRIPOS>BOND
     1    18    19    1
     2    19     3    1
     3     3     4   ar
     4     4     5   ar
     5     5     6   ar
     6     6     7   ar
     7     7     8   ar
     8     8     9   ar
     9     9    10    1
    10     9    11   ar
    11    11    12   ar
    12     8    13    1
    13    13    14    1
    14    14    15    1
    15    15     2    1
    16     2     1    1
    17     1    20    1
    18    20    21    1
    19    21    22   ar
    20    22    23   ar
    21    23    24   ar
    22    24    27    1
    23    27    28   ar
    24    28    29   ar
    25    29    30   ar
    26    30    31   ar
    27    31    32   ar
    28    32    33   ar
    29    33    34    1
    30    33    35   ar
    31    35    36   ar
    32    36    37   ar
    33    24    25   ar
    34    25    26    1
    35    15    16    1
    36    16    17    1
    37    12     3   ar
    38    25    21   ar
    39    11     5   ar
    40    37    27   ar
    41    17     7    1
    42    37    31   ar
@<TRIPOS>MOLECULE
*****
 37 42 0 0 0
SMALL
GASTEIGER

@<TRIPOS>ATOM
      1 C         142.4341  138.6453  158.5698 C.3     1  UNL1        0.0824
      2 C         142.9055  137.7703  159.6933 C.3     1  UNL1        0.0843
      3 C         140.6370  139.9956  168.8498 C.ar    1  UNL1        0.2057
      4 N         142.0229  139.8832  168.2872 N.ar    1  UNL1       -0.2121
      5 C         141.9062  139.5213  166.8362 C.ar    1  UNL1        0.1179
      6 C         142.9394  139.2787  165.7761 C.ar    1  UNL1        0.0178
      7 C         142.5143  138.9247  164.3817 C.ar    1  UNL1       -0.0233
      8 C         141.0563  138.8134  164.0476 C.ar    1  UNL1       -0.0256
      9 C         140.0232  139.0560  165.1077 C.ar    1  UNL1        0.0101
     10 C         138.5652  138.9447  164.7735 C.3     1  UNL1        0.0339
     11 C         140.4482  139.4099  166.5020 C.ar    1  UNL1        0.1600
     12 O         139.6637  139.7031  167.7465 O.2     1  UNL1       -0.4387
     13 C         140.4217  138.4748  162.7313 C.3     1  UNL1        0.0431
     14 C         141.0885  138.1638  161.4241 C.3     1  UNL1        0.0768
     15 N         142.5544  138.1147  161.1104 N.3     1  UNL1       -0.2713
     16 C         143.7158  138.3644  162.0263 C.3     1  UNL1        0.0768
     17 C         143.6979  138.7249  163.4822 C.3     1  UNL1        0.0434
     18 C         141.2627  141.0942  171.1195 C.3     1  UNL1        0.0102
     19 C         140.2859  140.3400  170.2669 C.3     1  UNL1        0.0853
     20 S         143.2449  139.8379  158.1570 S.3     1  UNL1       -0.0742
     21 C         143.1927  141.0978  158.9691 C.ar    1  UNL1        0.1933
     22 N         144.3700  141.9330  159.3774 N.ar    1  UNL1       -0.1221
     23 N         143.8589  143.0952  160.1763 N.ar    1  UNL1       -0.1282
     24 C         142.3660  142.9784  160.2617 C.ar    1  UNL1        0.1669
     25 N         141.9543  141.7439  159.5157 N.ar    1  UNL1       -0.2884
     26 C         140.5504  141.2434  159.3459 C.3     1  UNL1        0.1340
     27 C         141.4463  143.9291  160.9690 C.ar    1  UNL1        0.0374
     28 C         140.8348  145.0770  160.2216 C.ar    1  UNL1        0.0031
     29 C         139.9150  146.0277  160.9289 C.ar    1  UNL1        0.0016
     30 C         139.6068  145.8305  162.3836 C.ar    1  UNL1        0.0191
     31 C         140.2182  144.6826  163.1310 C.ar    1  UNL1        0.0810
     32 N         139.9100  144.4855  164.5857 N.ar    1  UNL1       -0.2497
     33 C         140.5214  143.3377  165.3330 C.ar    1  UNL1        0.0593
     34 C         140.2131  143.1405  166.7877 C.3     1  UNL1        0.0521
     35 C         141.4411  142.3870  164.6257 C.ar    1  UNL1        0.0147
     36 C         141.7494  142.5841  163.1711 C.ar    1  UNL1        0.0028
     37 C         141.1380  143.7319  162.4237 C.ar    1  UNL1        0.0206
@<TRIPOS>BOND
     1    18    19    1
     2    19     3    1
     3     3     4   ar
     4     4     5   ar
     5     5     6   ar
     6     6     7   ar
     7     7     8   ar
     8     8     9   ar
     9     9    10    1
    10     9    11   ar
    11    11    12   ar
    12     8    13    1
    13    13    14    1
    14    14    15    1
    15    15     2    1
    16     2     1    1
    17     1    20    1
    18    20    21    1
    19    21    22   ar
    20    22    23   ar
    21    23    24   ar
    22    24    27    1
    23    27    28   ar
    24    28    29   ar
    25    29    30   ar
    26    30    31   ar
    27    31    32   ar
    28    32    33   ar
    29    33    34    1
    30    33    35   ar
    31    35    36   ar
    32    36    37   ar
    33    24    25   ar
    34    25    26    1
    35    15    16    1
    36    16    17    1
    37    12     3   ar
    38    25    21   ar
    39    11     5   ar
    40    37    27   ar
    41    17     7    1
    42    37    31   ar
@<TRIPOS>MOLECULE
*****
 37 42 0 0 0
SMALL
GASTEIGER

@<TRIPOS>ATOM
      1 C         143.1792  142.7806  157.2286 C.3     1  UNL1        0.0824
      2 C         142.9260  143.9717  158.1046 C.3     1  UNL1        0.0843
      3 C         140.8522  142.7320  167.4909 C.ar    1  UNL1        0.2057
      4 N         142.0330  142.1579  166.7655 N.ar    1  UNL1       -0.2121
      5 C         141.9593  142.6027  165.3349 C.ar    1  UNL1        0.1179
      6 C         142.8504  142.3444  164.1562 C.ar    1  UNL1        0.0178
      7 C         142.5151  142.9351  162.8188 C.ar    1  UNL1       -0.0233
      8 C         141.2888  143.7840  162.6600 C.ar    1  UNL1       -0.0256
      9 C         140.3977  144.0424  163.8386 C.ar    1  UNL1        0.0101
     10 C         139.1713  144.8914  163.6797 C.3     1  UNL1        0.0339
     11 C         140.7329  143.4518  165.1761 C.ar    1  UNL1        0.1600
     12 O         140.0487  143.5316  166.5086 O.2     1  UNL1       -0.4387
     13 C         140.7751  144.4634  161.4252 C.3     1  UNL1        0.0431
     14 C         141.3609  144.4615  160.0443 C.3     1  UNL1        0.0768
     15 N         142.6050  143.7799  159.5572 N.3     1  UNL1       -0.2713
     16 C         143.5707  142.9317  160.3305 C.3     1  UNL1        0.0768
     17 C         143.5307  142.5557  161.7821 C.3     1  UNL1        0.0434
     18 C         140.3729  143.7320  169.8404 C.3     1  UNL1        0.0102
     19 C         140.5313  142.5401  168.9435 C.3     1  UNL1        0.0853
     20 S         142.1557  141.6881  157.1340 S.3     1  UNL1       -0.0742
     21 C         142.1349  140.5894  158.1549 C.ar    1  UNL1        0.1933
     22 N         143.1002  139.4443  158.2376 N.ar    1  UNL1       -0.1221
     23 N         142.7070  138.5901  159.4064 N.ar    1  UNL1       -0.1282
     24 C         141.4987  139.2073  160.0459 C.ar    1  UNL1        0.1669
     25 N         141.1452  140.4430  159.2725 N.ar    1  UNL1       -0.2884
     26 C         140.0024  141.3695  159.5653 C.3     1  UNL1        0.1340
     27 C         140.7717  138.6812  161.2478 C.ar    1  UNL1        0.0374
     28 C         139.3390  138.2528  161.1297 C.ar    1  UNL1        0.0031
     29 C         138.6119  137.7267  162.3316 C.ar    1  UNL1        0.0016
     30 C         139.3175  137.6291  163.6517 C.ar    1  UNL1        0.0191
     31 C         140.7502  138.0576  163.7699 C.ar    1  UNL1        0.0810
     32 N         141.4558  137.9599  165.0899 N.ar    1  UNL1       -0.2497
     33 C         142.8884  138.3884  165.2081 C.ar    1  UNL1        0.0593
     34 C         143.5940  138.2908  166.5281 C.3     1  UNL1        0.0521
     35 C         143.6155  138.9144  164.0061 C.ar    1  UNL1        0.0147
     36 C         142.9099  139.0121  162.6861 C.ar    1  UNL1        0.0028
     37 C         141.4773  138.5836  162.5679 C.ar    1  UNL1        0.0206
@<TRIPOS>BOND
     1    18    19    1
     2    19     3    1
     3     3     4   ar
     4     4     5   ar
     5     5     6   ar
     6     6     7   ar
     7     7     8   ar
     8     8     9   ar
     9     9    10    1
    10     9    11   ar
    11    11    12   ar
    12     8    13    1
    13    13    14    1
    14    14    15    1
    15    15     2    1
    16     2     1    1
    17     1    20    1
    18    20    21    1
    19    21    22   ar
    20    22    23   ar
    21    23    24   ar
    22    24    27    1
    23    27    28   ar
    24    28    29   ar
    25    29    30   ar
    26    30    31   ar
    27    31    32   ar
    28    32    33   ar
    29    33    34    1
    30    33    35   ar
    31    35    36   ar
    32    36    37   ar
    33    24    25   ar
    34    25    26    1
    35    15    16    1
    36    16    17    1
    37    12     3   ar
    38    25    21   ar
    39    11     5   ar
    40    37    27   ar
    41    17     7    1
    42    37    31   ar
@<TRIPOS>MOLECULE
*****
 37 42 0 0 0
SMALL
GASTEIGER

@<TRIPOS>ATOM
      1 C         140.2160  145.2358  158.2571 C.3     1  UNL1        0.0824
      2 C         141.3089  145.5323  159.2409 C.3     1  UNL1        0.0843
      3 C         140.9246  141.8064  168.1802 C.ar    1  UNL1        0.2057
      4 N         141.9647  141.5034  167.1426 N.ar    1  UNL1       -0.2121
      5 C         141.6373  142.2970  165.9127 C.ar    1  UNL1        0.1179
      6 C         142.3100  142.3996  164.5759 C.ar    1  UNL1        0.0178
      7 C         141.7403  143.2958  163.5164 C.ar    1  UNL1       -0.0233
      8 C         140.4980  144.0892  163.7937 C.ar    1  UNL1       -0.0256
      9 C         139.8252  143.9866  165.1304 C.ar    1  UNL1        0.0101
     10 C         138.5828  144.7800  165.4077 C.3     1  UNL1        0.0339
     11 C         140.3949  143.0905  166.1899 C.ar    1  UNL1        0.1600
     12 O         139.9545  142.7872  167.5914 O.2     1  UNL1       -0.4387
     13 C         139.7698  145.0347  162.8850 C.3     1  UNL1        0.0431
     14 C         140.1043  145.4203  161.4744 C.3     1  UNL1        0.0768
     15 N         141.2494  144.9556  160.6244 N.3     1  UNL1       -0.2713
     16 C         142.3430  143.9906  160.9748 C.3     1  UNL1        0.0768
     17 C         142.5615  143.2519  162.2619 C.3     1  UNL1        0.0434
     18 C         139.5379  140.9248  170.1927 C.3     1  UNL1        0.0102
     19 C         140.8651  141.2298  169.5637 C.3     1  UNL1        0.0853
     20 S         139.8659  143.8141  157.9308 S.3     1  UNL1       -0.0742
     21 C         139.5094  142.8582  159.0303 C.ar    1  UNL1        0.1933
     22 N         138.2239  142.8432  159.8032 N.ar    1  UNL1       -0.1221
     23 N         138.2959  141.7251  160.8006 N.ar    1  UNL1       -0.1282
     24 C         139.6257  141.0493  160.6443 C.ar    1  UNL1        0.1669
     25 N         140.3758  141.7496  159.5502 N.ar    1  UNL1       -0.2884
     26 C         141.7509  141.4021  159.0617 C.3     1  UNL1        0.1340
     27 C         140.1190  139.8786  161.4420 C.ar    1  UNL1        0.0374
     28 C         141.0455  138.8800  160.8139 C.ar    1  UNL1        0.0031
     29 C         141.5388  137.7094  161.6116 C.ar    1  UNL1        0.0016
     30 C         141.1056  137.5373  163.0373 C.ar    1  UNL1        0.0191
     31 C         140.1791  138.5360  163.6654 C.ar    1  UNL1        0.0810
     32 N         139.7459  138.3639  165.0911 N.ar    1  UNL1       -0.2497
     33 C         138.8194  139.3625  165.7192 C.ar    1  UNL1        0.0593
     34 C         138.3862  139.1905  167.1449 C.3     1  UNL1        0.0521
     35 C         138.3262  140.5331  164.9215 C.ar    1  UNL1        0.0147
     36 C         138.7594  140.7052  163.4957 C.ar    1  UNL1        0.0028
     37 C         139.6858  139.7066  162.8677 C.ar    1  UNL1        0.0206
@<TRIPOS>BOND
     1    18    19    1
     2    19     3    1
     3     3     4   ar
     4     4     5   ar
     5     5     6   ar
     6     6     7   ar
     7     7     8   ar
     8     8     9   ar
     9     9    10    1
    10     9    11   ar
    11    11    12   ar
    12     8    13    1
    13    13    14    1
    14    14    15    1
    15    15     2    1
    16     2     1    1
    17     1    20    1
    18    20    21    1
    19    21    22   ar
    20    22    23   ar
    21    23    24   ar
    22    24    27    1
    23    27    28   ar
    24    28    29   ar
    25    29    30   ar
    26    30    31   ar
    27    31    32   ar
    28    32    33   ar
    29    33    34    1
    30    33    35   ar
    31    35    36   ar
    32    36    37   ar
    33    24    25   ar
    34    25    26    1
    35    15    16    1
    36    16    17    1
    37    12     3   ar
    38    25    21   ar
    39    11     5   ar
    40    37    27   ar
    41    17     7    1
    42    37    31   ar
@<TRIPOS>MOLECULE
*****
 37 42 0 0 0
SMALL
GASTEIGER

@<TRIPOS>ATOM
      1 C         138.1807  138.6817  165.9421 C.3     1  UNL1        0.0824
      2 C         138.8932  137.5806  165.2140 C.3     1  UNL1        0.0843
      3 C         142.9119  139.2990  156.5631 C.ar    1  UNL1        0.2057
      4 N         143.5865  138.6507  157.7355 N.ar    1  UNL1       -0.2121
      5 C         142.5977  138.5857  158.8615 C.ar    1  UNL1        0.1179
      6 C         142.7020  138.0513  160.2593 C.ar    1  UNL1        0.0178
      7 C         141.5204  138.1251  161.1805 C.ar    1  UNL1       -0.0233
      8 C         140.2348  138.7332  160.7040 C.ar    1  UNL1       -0.0256
      9 C         140.1305  139.2676  159.3064 C.ar    1  UNL1        0.0101
     10 C         138.8447  139.8758  158.8299 C.3     1  UNL1        0.0339
     11 C         141.3119  139.1939  158.3851 C.ar    1  UNL1        0.1600
     12 O         141.5062  139.6347  156.9645 O.2     1  UNL1       -0.4387
     13 C         138.9468  138.9045  161.4537 C.3     1  UNL1        0.0431
     14 C         138.6266  138.5099  162.8651 C.3     1  UNL1        0.0768
     15 N         139.5152  137.8466  163.8751 N.3     1  UNL1       -0.2713
     16 C         140.9434  137.4140  163.7235 C.3     1  UNL1        0.0768
     17 C         141.8359  137.5379  162.5243 C.3     1  UNL1        0.0434
     18 C         144.9242  139.0827  154.9340 C.3     1  UNL1        0.0102
     19 C         143.5338  139.5650  155.2242 C.3     1  UNL1        0.0853
     20 S         138.9660  139.7108  166.6998 S.3     1  UNL1       -0.0742
     21 C         139.8466  140.6751  165.9620 C.ar    1  UNL1        0.1933
     22 N         141.3184  140.8680  166.1783 N.ar    1  UNL1       -0.1221
     23 N         141.7914  141.9281  165.2282 N.ar    1  UNL1       -0.1282
     24 C         140.6121  142.3904  164.4249 C.ar    1  UNL1        0.1669
     25 N         139.4101  141.6160  164.8784 N.ar    1  UNL1       -0.2884
     26 C         138.0163  141.7576  164.3422 C.3     1  UNL1        0.1340
     27 C         140.6314  143.4423  163.3557 C.ar    1  UNL1        0.0374
     28 C         139.8702  144.7206  163.5475 C.ar    1  UNL1        0.0031
     29 C         139.8894  145.7726  162.4783 C.ar    1  UNL1        0.0016
     30 C         140.6698  145.5463  161.2175 C.ar    1  UNL1        0.0191
     31 C         141.4310  144.2680  161.0257 C.ar    1  UNL1        0.0810
     32 N         142.2114  144.0417  159.7649 N.ar    1  UNL1       -0.2497
     33 C         142.9725  142.7635  159.5732 C.ar    1  UNL1        0.0593
     34 C         143.7529  142.5372  158.3123 C.3     1  UNL1        0.0521
     35 C         142.9533  141.7115  160.6423 C.ar    1  UNL1        0.0147
     36 C         142.1729  141.9378  161.9032 C.ar    1  UNL1        0.0028
     37 C         141.4117  143.2160  162.0949 C.ar    1  UNL1        0.0206
@<TRIPOS>BOND
     1    18    19    1
     2    19     3    1
     3     3     4   ar
     4     4     5   ar
     5     5     6   ar
     6     6     7   ar
     7     7     8   ar
     8     8     9   ar
     9     9    10    1
    10     9    11   ar
    11    11    12   ar
    12     8    13    1
    13    13    14    1
    14    14    15    1
    15    15     2    1
    16     2     1    1
    17     1    20    1
    18    20    21    1
    19    21    22   ar
    20    22    23   ar
    21    23    24   ar
    22    24    27    1
    23    27    28   ar
    24    28    29   ar
    25    29    30   ar
    26    30    31   ar
    27    31    32   ar
    28    32    33   ar
    29    33    34    1
    30    33    35   ar
    31    35    36   ar
    32    36    37   ar
    33    24    25   ar
    34    25    26    1
    35    15    16    1
    36    16    17    1
    37    12     3   ar
    38    25    21   ar
    39    11     5   ar
    40    37    27   ar
    41    17     7    1
    42    37    31   ar
