@<TRIPOS>MOLECULE
*****
 38 42 0 0 0
SMALL
GASTEIGER

@<TRIPOS>ATOM
      1 C         139.6117  138.9878  160.4631 C.ar    1  UNL1        0.0000
      2 C         140.8783  138.6072  159.7554 C.ar    1  UNL1        0.0000
      3 N         140.6125  138.6403  158.2795 N.ar    1  UNL1        0.0000
      4 N         139.1816  139.0413  158.0750 N.ar    1  UNL1        0.0000
      5 N         138.5631  139.2561  159.4246 N.ar    1  UNL1        0.0000
      6 C         141.6035  138.3273  157.1978 C.3     1  UNL1        0.0000
      7 C         141.8050  136.8706  156.9015 C.3     1  UNL1        0.0000
      8 C         142.7147  136.2392  155.8896 C.3     1  UNL1        0.0000
      9 C         143.6475  136.9084  154.9243 C.3     1  UNL1        0.0000
     10 C         143.9011  138.3743  154.7323 C.3     1  UNL1        0.0000
     11 N         143.2844  139.5330  155.4582 N.am    1  UNL1        0.0000
     12 C         142.2618  139.5120  156.5555 C.2     1  UNL1        0.0000
     13 O         141.8422  140.8533  157.0798 O.2     1  UNL1        0.0000
     14 SI        142.6880  134.7404  155.8362 Si      1  UNL1        0.0000
     15 C         143.7070  134.6832  156.9354 C.3     1  UNL1        0.0000
     16 C         141.6690  134.7977  154.7371 C.3     1  UNL1        0.0000
     17 C         142.6613  133.2416  155.7829 C.3     1  UNL1        0.0000
     18 C         143.7521  140.8925  155.0303 C.3     1  UNL1        0.0000
     19 C         145.1153  141.3761  155.4277 C.ar    1  UNL1        0.0000
     20 C         146.2727  141.2123  154.4876 C.ar    1  UNL1        0.0000
     21 C         147.6358  141.6959  154.8850 C.ar    1  UNL1        0.0000
     22 C         147.8416  142.3433  156.2223 C.ar    1  UNL1        0.0000
     23 C         146.6843  142.5071  157.1623 C.ar    1  UNL1        0.0000
     24 C         145.3211  142.0235  156.7650 C.ar    1  UNL1        0.0000
     25 C         138.6114  140.4007  164.0343 C.ar    1  UNL1        0.0000
     26 C         138.7967  140.3053  162.5488 C.ar    1  UNL1        0.0000
     27 C         139.4264  139.0833  161.9485 C.ar    1  UNL1        0.0000
     28 C         139.8707  137.9568  162.8337 C.ar    1  UNL1        0.0000
     29 C         139.6854  138.0523  164.3191 C.ar    1  UNL1        0.0000
     30 C         139.0557  139.2742  164.9194 C.ar    1  UNL1        0.0000
     31 N         138.8704  139.3696  166.4049 N.ar    1  UNL1        0.0000
     32 C         137.7253  138.8006  167.1889 C.ar    1  UNL1        0.0000
     33 N         137.9450  139.1302  168.6357 N.ar    1  UNL1        0.0000
     34 C         139.2259  139.9028  168.7458 C.ar    1  UNL1        0.0000
     35 C         139.8290  140.4343  170.0123 C.3     1  UNL1        0.0000
     36 C         139.7979  140.0509  167.3671 C.ar    1  UNL1        0.0000
     37 C         137.7242  142.8296  163.7818 C.3     1  UNL1        0.0000
     38 O         137.9817  141.6227  164.6346 O.3     1  UNL1        0.0000
@<TRIPOS>BOND
     1    37    38    1
     2    38    25    1
     3    25    26   ar
     4    26    27   ar
     5    27     1    1
     6     1     2   ar
     7     2     3   ar
     8     6     3    1
     9     6     7    1
    10     7     8    1
    11     8    14    1
    12    14    15    1
    13    14    16    1
    14    14    17    1
    15     8     9    1
    16     9    10    1
    17    10    11    1
    18    11    18    1
    19    18    19    1
    20    19    20   ar
    21    20    21   ar
    22    21    22   ar
    23    22    23   ar
    24    23    24   ar
    25    11    12   am
    26    12    13    2
    27     3     4   ar
    28     4     5   ar
    29    27    28   ar
    30    28    29   ar
    31    29    30   ar
    32    30    31    1
    33    31    32   ar
    34    32    33   ar
    35    33    34   ar
    36    34    35    1
    37    34    36   ar
    38    30    25   ar
    39    36    31   ar
    40     5     1   ar
    41    12     6    1
    42    24    19   ar
@<TRIPOS>MOLECULE
*****
 38 42 0 0 0
SMALL
GASTEIGER

@<TRIPOS>ATOM
      1 C         143.0751  138.5720  159.6085 C.ar    1  UNL1        0.0000
      2 C         142.2298  137.6795  158.7489 C.ar    1  UNL1        0.0000
      3 N         142.5747  137.9548  157.3153 N.ar    1  UNL1        0.0000
      4 N         143.6330  139.0174  157.2888 N.ar    1  UNL1        0.0000
      5 N         143.9422  139.3989  158.7062 N.ar    1  UNL1        0.0000
      6 C         141.9678  137.2851  156.1181 C.3     1  UNL1        0.0000
      7 C         140.8841  138.0540  155.4220 C.3     1  UNL1        0.0000
      8 C         140.0897  137.6627  154.2111 C.3     1  UNL1        0.0000
      9 C         140.1829  136.4061  153.3975 C.3     1  UNL1        0.0000
     10 C         141.0934  135.2302  153.5936 C.3     1  UNL1        0.0000
     11 N         142.1356  135.0207  154.6518 N.am    1  UNL1        0.0000
     12 C         142.5247  135.9353  155.7753 C.2     1  UNL1        0.0000
     13 O         143.6150  135.4335  156.6751 O.2     1  UNL1        0.0000
     14 SI        139.0670  138.6601  153.7536 Si      1  UNL1        0.0000
     15 C         140.0954  139.3129  152.8783 C.3     1  UNL1        0.0000
     16 C         138.0387  138.0072  154.6289 C.3     1  UNL1        0.0000
     17 C         138.0444  139.6574  153.2961 C.3     1  UNL1        0.0000
     18 C         142.8882  133.7254  154.5766 C.3     1  UNL1        0.0000
     19 C         142.1834  132.4722  154.1491 C.ar    1  UNL1        0.0000
     20 C         142.6319  131.7423  152.9177 C.ar    1  UNL1        0.0000
     21 C         141.9271  130.4892  152.4902 C.ar    1  UNL1        0.0000
     22 C         140.7738  129.9659  153.2939 C.ar    1  UNL1        0.0000
     23 C         140.3253  130.6957  154.5252 C.ar    1  UNL1        0.0000
     24 C         141.0301  131.9489  154.9528 C.ar    1  UNL1        0.0000
     25 C         144.1382  139.3859  163.3445 C.ar    1  UNL1        0.0000
     26 C         144.1570  139.3302  161.8456 C.ar    1  UNL1        0.0000
     27 C         143.0563  138.6278  161.1074 C.ar    1  UNL1        0.0000
     28 C         141.9367  137.9811  161.8680 C.ar    1  UNL1        0.0000
     29 C         141.9179  138.0369  163.3668 C.ar    1  UNL1        0.0000
     30 C         143.0187  138.7393  164.1051 C.ar    1  UNL1        0.0000
     31 N         142.9998  138.7950  165.6039 N.ar    1  UNL1        0.0000
     32 C         143.8100  137.9355  166.5285 C.ar    1  UNL1        0.0000
     33 N         143.4783  138.3293  167.9373 N.ar    1  UNL1        0.0000
     34 C         142.4631  139.4322  167.8835 C.ar    1  UNL1        0.0000
     35 C         141.8510  140.1256  169.0645 C.3     1  UNL1        0.0000
     36 C         142.1673  139.7200  166.4414 C.ar    1  UNL1        0.0000
     37 C         145.7096  141.4362  163.6226 C.3     1  UNL1        0.0000
     38 O         145.2389  140.0883  164.0829 O.3     1  UNL1        0.0000
@<TRIPOS>BOND
     1    37    38    1
     2    38    25    1
     3    25    26   ar
     4    26    27   ar
     5    27     1    1
     6     1     2   ar
     7     2     3   ar
     8     6     3    1
     9     6     7    1
    10     7     8    1
    11     8    14    1
    12    14    15    1
    13    14    16    1
    14    14    17    1
    15     8     9    1
    16     9    10    1
    17    10    11    1
    18    11    18    1
    19    18    19    1
    20    19    20   ar
    21    20    21   ar
    22    21    22   ar
    23    22    23   ar
    24    23    24   ar
    25    11    12   am
    26    12    13    2
    27     3     4   ar
    28     4     5   ar
    29    27    28   ar
    30    28    29   ar
    31    29    30   ar
    32    30    31    1
    33    31    32   ar
    34    32    33   ar
    35    33    34   ar
    36    34    35    1
    37    34    36   ar
    38    30    25   ar
    39    36    31   ar
    40     5     1   ar
    41    12     6    1
    42    24    19   ar
@<TRIPOS>MOLECULE
*****
 38 42 0 0 0
SMALL
GASTEIGER

@<TRIPOS>ATOM
      1 C         139.1202  139.4653  159.8915 C.ar    1  UNL1        0.0000
      2 C         140.3228  139.0714  159.0862 C.ar    1  UNL1        0.0000
      3 N         139.9821  139.2340  157.6345 N.ar    1  UNL1        0.0000
      4 N         138.5689  139.7284  157.5426 N.ar    1  UNL1        0.0000
      5 N         138.0362  139.8713  158.9376 N.ar    1  UNL1        0.0000
      6 C         140.8943  138.9518  156.4777 C.3     1  UNL1        0.0000
      7 C         141.9945  139.9477  156.2585 C.3     1  UNL1        0.0000
      8 C         143.0579  139.9487  155.2005 C.3     1  UNL1        0.0000
      9 C         143.2837  138.9544  154.1005 C.3     1  UNL1        0.0000
     10 C         142.5019  137.7133  153.7866 C.3     1  UNL1        0.0000
     11 N         141.3012  137.1600  154.4954 N.am    1  UNL1        0.0000
     12 C         140.5858  137.7113  155.6930 C.2     1  UNL1        0.0000
     13 O         139.4058  136.9169  156.1689 O.2     1  UNL1        0.0000
     14 SI        144.0231  141.0960  155.2491 Si      1  UNL1        0.0000
     15 C         143.1100  141.9011  154.3727 C.3     1  UNL1        0.0000
     16 C         144.9360  140.2909  156.1256 C.3     1  UNL1        0.0000
     17 C         144.9881  142.2432  155.2977 C.3     1  UNL1        0.0000
     18 C         140.7421  135.8873  153.9320 C.3     1  UNL1        0.0000
     19 C         141.4383  134.5838  154.1889 C.ar    1  UNL1        0.0000
     20 C         141.7895  133.6823  153.0425 C.ar    1  UNL1        0.0000
     21 C         142.4858  132.3788  153.2994 C.ar    1  UNL1        0.0000
     22 C         142.8309  131.9767  154.7027 C.ar    1  UNL1        0.0000
     23 C         142.4797  132.8781  155.8490 C.ar    1  UNL1        0.0000
     24 C         141.7835  134.1816  155.5922 C.ar    1  UNL1        0.0000
     25 C         138.3269  140.6199  163.6047 C.ar    1  UNL1        0.0000
     26 C         138.4277  140.6303  162.1081 C.ar    1  UNL1        0.0000
     27 C         139.0193  139.4550  161.3881 C.ar    1  UNL1        0.0000
     28 C         139.5102  138.2691  162.1647 C.ar    1  UNL1        0.0000
     29 C         139.4093  138.2587  163.6612 C.ar    1  UNL1        0.0000
     30 C         138.8177  139.4341  164.3813 C.ar    1  UNL1        0.0000
     31 N         138.7170  139.4237  165.8778 N.ar    1  UNL1        0.0000
     32 C         137.7450  138.6207  166.6905 C.ar    1  UNL1        0.0000
     33 N         137.9979  138.9152  168.1394 N.ar    1  UNL1        0.0000
     34 C         139.1261  139.9001  168.2222 C.ar    1  UNL1        0.0000
     35 C         139.7078  140.4706  169.4817 C.3     1  UNL1        0.0000
     36 C         139.5706  140.2144  166.8245 C.ar    1  UNL1        0.0000
     37 C         138.5571  143.0306  164.5460 C.3     1  UNL1        0.0000
     38 O         137.7353  141.7953  164.3248 O.3     1  UNL1        0.0000
@<TRIPOS>BOND
     1    37    38    1
     2    38    25    1
     3    25    26   ar
     4    26    27   ar
     5    27     1    1
     6     1     2   ar
     7     2     3   ar
     8     6     3    1
     9     6     7    1
    10     7     8    1
    11     8    14    1
    12    14    15    1
    13    14    16    1
    14    14    17    1
    15     8     9    1
    16     9    10    1
    17    10    11    1
    18    11    18    1
    19    18    19    1
    20    19    20   ar
    21    20    21   ar
    22    21    22   ar
    23    22    23   ar
    24    23    24   ar
    25    11    12   am
    26    12    13    2
    27     3     4   ar
    28     4     5   ar
    29    27    28   ar
    30    28    29   ar
    31    29    30   ar
    32    30    31    1
    33    31    32   ar
    34    32    33   ar
    35    33    34   ar
    36    34    35    1
    37    34    36   ar
    38    30    25   ar
    39    36    31   ar
    40     5     1   ar
    41    12     6    1
    42    24    19   ar
@<TRIPOS>MOLECULE
*****
 38 42 0 0 0
SMALL
GASTEIGER

@<TRIPOS>ATOM
      1 C         142.3166  138.8731  159.8214 C.ar    1  UNL1        0.0000
      2 C         141.2273  139.5712  160.5804 C.ar    1  UNL1        0.0000
      3 N         141.8367  140.1865  161.8051 N.ar    1  UNL1        0.0000
      4 N         143.3027  139.8687  161.8031 N.ar    1  UNL1        0.0000
      5 N         143.5992  139.0569  160.5770 N.ar    1  UNL1        0.0000
      6 C         141.1082  140.9803  162.8488 C.3     1  UNL1        0.0000
      7 C         140.8588  142.4211  162.5141 C.3     1  UNL1        0.0000
      8 C         140.1650  143.4658  163.3371 C.3     1  UNL1        0.0000
      9 C         139.5494  143.3278  164.6979 C.3     1  UNL1        0.0000
     10 C         139.4754  142.1109  165.5719 C.3     1  UNL1        0.0000
     11 N         139.9988  140.7316  165.3009 N.am    1  UNL1        0.0000
     12 C         140.7255  140.2285  164.0889 C.2     1  UNL1        0.0000
     13 O         141.1218  138.7821  164.1216 O.2     1  UNL1        0.0000
     14 SI        140.0751  144.8288  162.7172 Si      1  UNL1        0.0000
     15 C         138.7074  144.5011  162.1955 C.3     1  UNL1        0.0000
     16 C         141.4427  145.1564  163.2389 C.3     1  UNL1        0.0000
     17 C         139.9851  146.1917  162.0973 C.3     1  UNL1        0.0000
     18 C         139.7645  139.7219  166.3851 C.3     1  UNL1        0.0000
     19 C         140.3730  139.9230  167.7414 C.ar    1  UNL1        0.0000
     20 C         141.8610  139.8454  167.9149 C.ar    1  UNL1        0.0000
     21 C         142.4694  140.0464  169.2711 C.ar    1  UNL1        0.0000
     22 C         141.5899  140.3251  170.4538 C.ar    1  UNL1        0.0000
     23 C         140.1020  140.4027  170.2803 C.ar    1  UNL1        0.0000
     24 C         139.4935  140.2017  168.9241 C.ar    1  UNL1        0.0000
     25 C         142.8495  136.1796  156.9558 C.ar    1  UNL1        0.0000
     26 C         143.0141  136.9298  158.2443 C.ar    1  UNL1        0.0000
     27 C         142.1520  138.1229  158.5329 C.ar    1  UNL1        0.0000
     28 C         141.1253  138.5658  157.5330 C.ar    1  UNL1        0.0000
     29 C         140.9607  137.8156  156.2446 C.ar    1  UNL1        0.0000
     30 C         141.8228  136.6225  155.9560 C.ar    1  UNL1        0.0000
     31 N         141.6581  135.8724  154.6675 N.ar    1  UNL1        0.0000
     32 C         141.9515  136.4020  153.2952 C.ar    1  UNL1        0.0000
     33 N         141.6458  135.3178  152.3047 N.ar    1  UNL1        0.0000
     34 C         141.1636  134.1180  153.0649 C.ar    1  UNL1        0.0000
     35 C         140.7469  132.8058  152.4694 C.3     1  UNL1        0.0000
     36 C         141.1711  134.4607  154.5252 C.ar    1  UNL1        0.0000
     37 C         143.5964  133.7550  157.5159 C.3     1  UNL1        0.0000
     38 O         143.7116  134.9865  156.6672 O.3     1  UNL1        0.0000
@<TRIPOS>BOND
     1    37    38    1
     2    38    25    1
     3    25    26   ar
     4    26    27   ar
     5    27     1    1
     6     1     2   ar
     7     2     3   ar
     8     6     3    1
     9     6     7    1
    10     7     8    1
    11     8    14    1
    12    14    15    1
    13    14    16    1
    14    14    17    1
    15     8     9    1
    16     9    10    1
    17    10    11    1
    18    11    18    1
    19    18    19    1
    20    19    20   ar
    21    20    21   ar
    22    21    22   ar
    23    22    23   ar
    24    23    24   ar
    25    11    12   am
    26    12    13    2
    27     3     4   ar
    28     4     5   ar
    29    27    28   ar
    30    28    29   ar
    31    29    30   ar
    32    30    31    1
    33    31    32   ar
    34    32    33   ar
    35    33    34   ar
    36    34    35    1
    37    34    36   ar
    38    30    25   ar
    39    36    31   ar
    40     5     1   ar
    41    12     6    1
    42    24    19   ar
@<TRIPOS>MOLECULE
*****
 38 42 0 0 0
SMALL
GASTEIGER

@<TRIPOS>ATOM
      1 C         143.0804  138.5157  159.5722 C.ar    1  UNL1        0.0000
      2 C         142.2583  137.5944  158.7205 C.ar    1  UNL1        0.0000
      3 N         142.6063  137.8564  157.2851 N.ar    1  UNL1        0.0000
      4 N         143.6433  138.9395  157.2497 N.ar    1  UNL1        0.0000
      5 N         143.9364  139.3470  158.6633 N.ar    1  UNL1        0.0000
      6 C         142.0201  137.1579  156.0941 C.3     1  UNL1        0.0000
      7 C         140.9715  137.9228  155.3420 C.3     1  UNL1        0.0000
      8 C         140.2038  137.5056  154.1226 C.3     1  UNL1        0.0000
      9 C         140.2951  136.2206  153.3544 C.3     1  UNL1        0.0000
     10 C         141.1766  135.0353  153.6155 C.3     1  UNL1        0.0000
     11 N         142.1845  134.8424  154.7095 N.am    1  UNL1        0.0000
     12 C         142.5598  135.7871  155.8126 C.2     1  UNL1        0.0000
     13 O         143.6145  135.2959  156.7594 O.2     1  UNL1        0.0000
     14 SI        139.2140  138.5058  153.6030 Si      1  UNL1        0.0000
     15 C         140.2878  139.1321  152.7635 C.3     1  UNL1        0.0000
     16 C         138.1403  137.8795  154.4425 C.3     1  UNL1        0.0000
     17 C         138.2243  139.5059  153.0834 C.3     1  UNL1        0.0000
     18 C         142.9134  133.5315  154.6991 C.3     1  UNL1        0.0000
     19 C         142.2254  132.2947  154.2020 C.ar    1  UNL1        0.0000
     20 C         141.1289  131.6692  155.0125 C.ar    1  UNL1        0.0000
     21 C         140.4410  130.4325  154.5154 C.ar    1  UNL1        0.0000
     22 C         140.8494  129.8212  153.2079 C.ar    1  UNL1        0.0000
     23 C         141.9457  130.4467  152.3975 C.ar    1  UNL1        0.0000
     24 C         142.6338  131.6834  152.8946 C.ar    1  UNL1        0.0000
     25 C         141.9702  137.9261  163.3365 C.ar    1  UNL1        0.0000
     26 C         141.9991  137.8496  161.8387 C.ar    1  UNL1        0.0000
     27 C         143.0515  138.5922  161.0700 C.ar    1  UNL1        0.0000
     28 C         144.0750  139.4113  161.7991 C.ar    1  UNL1        0.0000
     29 C         144.0461  139.4877  163.2968 C.ar    1  UNL1        0.0000
     30 C         142.9937  138.7451  164.0656 C.ar    1  UNL1        0.0000
     31 N         142.9649  138.8216  165.5633 N.ar    1  UNL1        0.0000
     32 C         143.8515  138.0588  166.5024 C.ar    1  UNL1        0.0000
     33 N         143.4789  138.4402  167.9044 N.ar    1  UNL1        0.0000
     34 C         142.3620  139.4387  167.8318 C.ar    1  UNL1        0.0000
     35 C         141.6821  140.0877  169.0009 C.3     1  UNL1        0.0000
     36 C         142.0443  139.6746  166.3850 C.ar    1  UNL1        0.0000
     37 C         139.4990  137.6701  164.0965 C.3     1  UNL1        0.0000
     38 O         140.9178  137.1834  164.1053 O.3     1  UNL1        0.0000
@<TRIPOS>BOND
     1    37    38    1
     2    38    25    1
     3    25    26   ar
     4    26    27   ar
     5    27     1    1
     6     1     2   ar
     7     2     3   ar
     8     6     3    1
     9     6     7    1
    10     7     8    1
    11     8    14    1
    12    14    15    1
    13    14    16    1
    14    14    17    1
    15     8     9    1
    16     9    10    1
    17    10    11    1
    18    11    18    1
    19    18    19    1
    20    19    20   ar
    21    20    21   ar
    22    21    22   ar
    23    22    23   ar
    24    23    24   ar
    25    11    12   am
    26    12    13    2
    27     3     4   ar
    28     4     5   ar
    29    27    28   ar
    30    28    29   ar
    31    29    30   ar
    32    30    31    1
    33    31    32   ar
    34    32    33   ar
    35    33    34   ar
    36    34    35    1
    37    34    36   ar
    38    30    25   ar
    39    36    31   ar
    40     5     1   ar
    41    12     6    1
    42    24    19   ar
@<TRIPOS>MOLECULE
*****
 38 42 0 0 0
SMALL
GASTEIGER

@<TRIPOS>ATOM
      1 C         142.6578  137.4390  157.5155 C.ar    1  UNL1        0.0000
      2 C         141.8602  137.9506  158.6783 C.ar    1  UNL1        0.0000
      3 N         142.4232  139.2828  159.0761 N.ar    1  UNL1        0.0000
      4 N         143.5686  139.5945  158.1592 N.ar    1  UNL1        0.0000
      5 N         143.7136  138.4549  157.1946 N.ar    1  UNL1        0.0000
      6 C         141.9278  140.1510  160.1946 C.3     1  UNL1        0.0000
      7 C         141.4780  141.5267  159.8002 C.3     1  UNL1        0.0000
      8 C         140.9370  142.6199  160.6734 C.3     1  UNL1        0.0000
      9 C         140.7122  142.6074  162.1563 C.3     1  UNL1        0.0000
     10 C         140.9729  141.4987  163.1325 C.3     1  UNL1        0.0000
     11 N         141.5227  140.1287  162.8668 N.am    1  UNL1        0.0000
     12 C         141.9477  139.5289  161.5592 C.2     1  UNL1        0.0000
     13 O         142.4603  138.1208  161.6252 O.2     1  UNL1        0.0000
     14 SI        140.5727  143.8939  159.9705 Si      1  UNL1        0.0000
     15 C         139.2698  143.2855  159.5434 C.3     1  UNL1        0.0000
     16 C         141.8755  144.5022  160.3976 C.3     1  UNL1        0.0000
     17 C         140.2083  145.1679  159.2676 C.3     1  UNL1        0.0000
     18 C         141.6666  139.2410  164.0673 C.3     1  UNL1        0.0000
     19 C         140.4710  138.9314  164.9187 C.ar    1  UNL1        0.0000
     20 C         140.1146  139.8294  166.0662 C.ar    1  UNL1        0.0000
     21 C         138.9191  139.5197  166.9176 C.ar    1  UNL1        0.0000
     22 C         138.0800  138.3121  166.6215 C.ar    1  UNL1        0.0000
     23 C         138.4364  137.4142  165.4741 C.ar    1  UNL1        0.0000
     24 C         139.6319  137.7238  164.6227 C.ar    1  UNL1        0.0000
     25 C         143.0223  133.6309  156.4590 C.ar    1  UNL1        0.0000
     26 C         143.2422  134.9305  157.1753 C.ar    1  UNL1        0.0000
     27 C         142.4379  136.1394  156.7993 C.ar    1  UNL1        0.0000
     28 C         141.4137  136.0489  155.7070 C.ar    1  UNL1        0.0000
     29 C         141.1939  134.7495  154.9909 C.ar    1  UNL1        0.0000
     30 C         141.9982  133.5404  155.3668 C.ar    1  UNL1        0.0000
     31 N         141.7783  132.2410  154.6506 N.ar    1  UNL1        0.0000
     32 C         142.6129  131.7010  153.5273 C.ar    1  UNL1        0.0000
     33 N         142.0355  130.3796  153.1144 N.ar    1  UNL1        0.0000
     34 C         140.8440  130.1029  153.9825 C.ar    1  UNL1        0.0000
     35 C         139.9657  128.8889  153.9134 C.3     1  UNL1        0.0000
     36 C         140.6850  131.2532  154.9320 C.ar    1  UNL1        0.0000
     37 C         144.9226  132.5369  157.8527 C.3     1  UNL1        0.0000
     38 O         143.8266  132.4218  156.8350 O.3     1  UNL1        0.0000
@<TRIPOS>BOND
     1    37    38    1
     2    38    25    1
     3    25    26   ar
     4    26    27   ar
     5    27     1    1
     6     1     2   ar
     7     2     3   ar
     8     6     3    1
     9     6     7    1
    10     7     8    1
    11     8    14    1
    12    14    15    1
    13    14    16    1
    14    14    17    1
    15     8     9    1
    16     9    10    1
    17    10    11    1
    18    11    18    1
    19    18    19    1
    20    19    20   ar
    21    20    21   ar
    22    21    22   ar
    23    22    23   ar
    24    23    24   ar
    25    11    12   am
    26    12    13    2
    27     3     4   ar
    28     4     5   ar
    29    27    28   ar
    30    28    29   ar
    31    29    30   ar
    32    30    31    1
    33    31    32   ar
    34    32    33   ar
    35    33    34   ar
    36    34    35    1
    37    34    36   ar
    38    30    25   ar
    39    36    31   ar
    40     5     1   ar
    41    12     6    1
    42    24    19   ar
@<TRIPOS>MOLECULE
*****
 38 42 0 0 0
SMALL
GASTEIGER

@<TRIPOS>ATOM
      1 C         142.1435  140.7184  161.2128 C.ar    1  UNL1        0.0000
      2 C         143.2285  140.2373  160.2956 C.ar    1  UNL1        0.0000
      3 N         142.8868  140.6770  158.9028 N.ar    1  UNL1        0.0000
      4 N         141.5907  141.4298  158.9592 N.ar    1  UNL1        0.0000
      5 N         141.1313  141.4554  160.3870 N.ar    1  UNL1        0.0000
      6 C         143.6986  140.4106  157.6699 C.3     1  UNL1        0.0000
      7 C         143.2443  139.2547  156.8287 C.3     1  UNL1        0.0000
      8 C         143.8366  138.7381  155.5511 C.3     1  UNL1        0.0000
      9 C         145.0294  139.2497  154.7992 C.3     1  UNL1        0.0000
     10 C         145.9245  140.4044  155.1390 C.3     1  UNL1        0.0000
     11 N         145.8479  141.3325  156.3149 N.am    1  UNL1        0.0000
     12 C         144.8573  141.3353  157.4412 C.2     1  UNL1        0.0000
     13 O         145.0510  142.4041  158.4757 O.2     1  UNL1        0.0000
     14 SI        143.1445  137.5531  154.9454 Si      1  UNL1        0.0000
     15 C         144.1403  136.6391  155.5960 C.3     1  UNL1        0.0000
     16 C         142.1489  138.4670  154.2949 C.3     1  UNL1        0.0000
     17 C         142.4525  136.3681  154.3398 C.3     1  UNL1        0.0000
     18 C         146.9012  142.3989  156.3719 C.3     1  UNL1        0.0000
     19 C         147.9740  142.4503  155.3247 C.ar    1  UNL1        0.0000
     20 C         149.2380  141.6631  155.5066 C.ar    1  UNL1        0.0000
     21 C         150.3107  141.7145  154.4595 C.ar    1  UNL1        0.0000
     22 C         150.1196  142.5530  153.2305 C.ar    1  UNL1        0.0000
     23 C         148.8557  143.3400  153.0486 C.ar    1  UNL1        0.0000
     24 C         147.7829  143.2887  154.0957 C.ar    1  UNL1        0.0000
     25 C         141.0727  139.2694  164.7490 C.ar    1  UNL1        0.0000
     26 C         141.1344  139.4871  163.2661 C.ar    1  UNL1        0.0000
     27 C         142.0817  140.5006  162.6957 C.ar    1  UNL1        0.0000
     28 C         142.9673  141.2965  163.6081 C.ar    1  UNL1        0.0000
     29 C         142.9055  141.0787  165.0909 C.ar    1  UNL1        0.0000
     30 C         141.9582  140.0652  165.6614 C.ar    1  UNL1        0.0000
     31 N         141.8965  139.8475  167.1442 N.ar    1  UNL1        0.0000
     32 C         142.9314  139.1508  167.9769 C.ar    1  UNL1        0.0000
     33 N         142.4635  139.1611  169.4020 N.ar    1  UNL1        0.0000
     34 C         141.1394  139.8641  169.4501 C.ar    1  UNL1        0.0000
     35 C         140.3111  140.1013  170.6780 C.3     1  UNL1        0.0000
     36 C         140.7889  140.2884  168.0547 C.ar    1  UNL1        0.0000
     37 C         138.6669  138.5818  165.4486 C.3     1  UNL1        0.0000
     38 O         140.1254  138.2559  165.3194 O.3     1  UNL1        0.0000
@<TRIPOS>BOND
     1    37    38    1
     2    38    25    1
     3    25    26   ar
     4    26    27   ar
     5    27     1    1
     6     1     2   ar
     7     2     3   ar
     8     6     3    1
     9     6     7    1
    10     7     8    1
    11     8    14    1
    12    14    15    1
    13    14    16    1
    14    14    17    1
    15     8     9    1
    16     9    10    1
    17    10    11    1
    18    11    18    1
    19    18    19    1
    20    19    20   ar
    21    20    21   ar
    22    21    22   ar
    23    22    23   ar
    24    23    24   ar
    25    11    12   am
    26    12    13    2
    27     3     4   ar
    28     4     5   ar
    29    27    28   ar
    30    28    29   ar
    31    29    30   ar
    32    30    31    1
    33    31    32   ar
    34    32    33   ar
    35    33    34   ar
    36    34    35    1
    37    34    36   ar
    38    30    25   ar
    39    36    31   ar
    40     5     1   ar
    41    12     6    1
    42    24    19   ar
@<TRIPOS>MOLECULE
*****
 38 42 0 0 0
SMALL
GASTEIGER

@<TRIPOS>ATOM
      1 C         141.8388  139.8688  161.2381 C.ar    1  UNL1        0.0000
      2 C         143.0257  139.6878  160.3390 C.ar    1  UNL1        0.0000
      3 N         142.5592  139.8326  158.9208 N.ar    1  UNL1        0.0000
      4 N         141.0839  140.1031  158.9434 N.ar    1  UNL1        0.0000
      5 N         140.6387  140.1255  160.3757 N.ar    1  UNL1        0.0000
      6 C         143.4171  139.7257  157.6950 C.3     1  UNL1        0.0000
      7 C         143.0960  138.5867  156.7733 C.3     1  UNL1        0.0000
      8 C         143.7613  138.2125  155.4819 C.3     1  UNL1        0.0000
      9 C         144.9118  138.8850  154.7934 C.3     1  UNL1        0.0000
     10 C         145.6813  140.0977  155.2261 C.3     1  UNL1        0.0000
     11 N         145.4903  140.9374  156.4543 N.am    1  UNL1        0.0000
     12 C         144.4826  140.7718  157.5530 C.2     1  UNL1        0.0000
     13 O         144.5493  141.7866  158.6556 O.2     1  UNL1        0.0000
     14 SI        143.2020  137.0065  154.7873 Si      1  UNL1        0.0000
     15 C         142.2496  137.8841  154.0304 C.3     1  UNL1        0.0000
     16 C         144.1543  136.1289  155.5441 C.3     1  UNL1        0.0000
     17 C         142.6426  135.8005  154.0926 C.3     1  UNL1        0.0000
     18 C         146.4314  142.0959  156.6035 C.3     1  UNL1        0.0000
     19 C         147.3899  142.4305  155.4992 C.ar    1  UNL1        0.0000
     20 C         147.0024  143.4255  154.4456 C.ar    1  UNL1        0.0000
     21 C         147.9609  143.7601  153.3414 C.ar    1  UNL1        0.0000
     22 C         149.3068  143.0998  153.2908 C.ar    1  UNL1        0.0000
     23 C         149.6942  142.1049  154.3443 C.ar    1  UNL1        0.0000
     24 C         148.7358  141.7702  155.4486 C.ar    1  UNL1        0.0000
     25 C         142.2902  140.9349  165.0342 C.ar    1  UNL1        0.0000
     26 C         142.2790  140.9994  163.5355 C.ar    1  UNL1        0.0000
     27 C         141.8500  139.8045  162.7367 C.ar    1  UNL1        0.0000
     28 C         141.4324  138.5451  163.4365 C.ar    1  UNL1        0.0000
     29 C         141.4437  138.4807  164.9350 C.ar    1  UNL1        0.0000
     30 C         141.8726  139.6756  165.7339 C.ar    1  UNL1        0.0000
     31 N         141.8838  139.6111  167.2324 N.ar    1  UNL1        0.0000
     32 C         142.9733  139.0265  168.0817 C.ar    1  UNL1        0.0000
     33 N         142.5703  139.1740  169.5190 N.ar    1  UNL1        0.0000
     34 C         141.2318  139.8498  169.5580 C.ar    1  UNL1        0.0000
     35 C         140.4540  140.1949  170.7934 C.3     1  UNL1        0.0000
     36 C         140.8074  140.1200  168.1449 C.ar    1  UNL1        0.0000
     37 C         143.7761  143.0498  165.2978 C.3     1  UNL1        0.0000
     38 O         142.7191  142.1298  165.8331 O.3     1  UNL1        0.0000
@<TRIPOS>BOND
     1    37    38    1
     2    38    25    1
     3    25    26   ar
     4    26    27   ar
     5    27     1    1
     6     1     2   ar
     7     2     3   ar
     8     6     3    1
     9     6     7    1
    10     7     8    1
    11     8    14    1
    12    14    15    1
    13    14    16    1
    14    14    17    1
    15     8     9    1
    16     9    10    1
    17    10    11    1
    18    11    18    1
    19    18    19    1
    20    19    20   ar
    21    20    21   ar
    22    21    22   ar
    23    22    23   ar
    24    23    24   ar
    25    11    12   am
    26    12    13    2
    27     3     4   ar
    28     4     5   ar
    29    27    28   ar
    30    28    29   ar
    31    29    30   ar
    32    30    31    1
    33    31    32   ar
    34    32    33   ar
    35    33    34   ar
    36    34    35    1
    37    34    36   ar
    38    30    25   ar
    39    36    31   ar
    40     5     1   ar
    41    12     6    1
    42    24    19   ar
@<TRIPOS>MOLECULE
*****
 38 42 0 0 0
SMALL
GASTEIGER

@<TRIPOS>ATOM
      1 C         143.3295  137.0965  156.2523 C.ar    1  UNL1        0.0000
      2 C         142.6543  137.8404  157.3662 C.ar    1  UNL1        0.0000
      3 N         143.3258  139.1743  157.5066 N.ar    1  UNL1        0.0000
      4 N         144.4159  139.2549  156.4795 N.ar    1  UNL1        0.0000
      5 N         144.4182  137.9707  155.7042 N.ar    1  UNL1        0.0000
      6 C         142.9697  140.2406  158.4997 C.3     1  UNL1        0.0000
      7 C         142.0199  141.2939  158.0112 C.3     1  UNL1        0.0000
      8 C         141.4763  142.4794  158.7524 C.3     1  UNL1        0.0000
      9 C         141.7482  142.9042  160.1649 C.3     1  UNL1        0.0000
     10 C         142.6308  142.2487  161.1854 C.3     1  UNL1        0.0000
     11 N         143.4596  141.0063  161.0452 N.am    1  UNL1        0.0000
     12 C         143.6103  140.1126  159.8499 C.2     1  UNL1        0.0000
     13 O         144.5224  138.9353  160.0285 O.2     1  UNL1        0.0000
     14 SI        140.5366  143.3557  157.9784 Si      1  UNL1        0.0000
     15 C         141.6987  144.1654  157.4845 C.3     1  UNL1        0.0000
     16 C         139.3746  142.5460  158.4724 C.3     1  UNL1        0.0000
     17 C         139.5970  144.2321  157.2045 C.3     1  UNL1        0.0000
     18 C         144.2408  140.6045  162.2609 C.3     1  UNL1        0.0000
     19 C         143.6033  139.7443  163.3116 C.ar    1  UNL1        0.0000
     20 C         144.2110  139.6579  164.6803 C.ar    1  UNL1        0.0000
     21 C         143.5735  138.7978  165.7309 C.ar    1  UNL1        0.0000
     22 C         142.3285  138.0240  165.4128 C.ar    1  UNL1        0.0000
     23 C         141.7209  138.1104  164.0441 C.ar    1  UNL1        0.0000
     24 C         142.3583  138.9705  162.9935 C.ar    1  UNL1        0.0000
     25 C         142.6413  133.1880  156.2457 C.ar    1  UNL1        0.0000
     26 C         142.9932  134.5644  156.7271 C.ar    1  UNL1        0.0000
     27 C         142.9776  135.7201  155.7710 C.ar    1  UNL1        0.0000
     28 C         142.6100  135.4994  154.3335 C.ar    1  UNL1        0.0000
     29 C         142.2581  134.1230  153.8522 C.ar    1  UNL1        0.0000
     30 C         142.2737  132.9673  154.8083 C.ar    1  UNL1        0.0000
     31 N         141.9218  131.5909  154.3269 N.ar    1  UNL1        0.0000
     32 C         142.7252  130.7585  153.3721 C.ar    1  UNL1        0.0000
     33 N         142.0046  129.4584  153.1709 N.ar    1  UNL1        0.0000
     34 C         140.7558  129.4874  154.0013 C.ar    1  UNL1        0.0000
     35 C         139.7370  128.3908  154.1000 C.3     1  UNL1        0.0000
     36 C         140.7046  130.8053  154.7158 C.ar    1  UNL1        0.0000
     37 C         143.8530  131.1294  157.2676 C.3     1  UNL1        0.0000
     38 O         142.6569  132.0322  157.2017 O.3     1  UNL1        0.0000
@<TRIPOS>BOND
     1    37    38    1
     2    38    25    1
     3    25    26   ar
     4    26    27   ar
     5    27     1    1
     6     1     2   ar
     7     2     3   ar
     8     6     3    1
     9     6     7    1
    10     7     8    1
    11     8    14    1
    12    14    15    1
    13    14    16    1
    14    14    17    1
    15     8     9    1
    16     9    10    1
    17    10    11    1
    18    11    18    1
    19    18    19    1
    20    19    20   ar
    21    20    21   ar
    22    21    22   ar
    23    22    23   ar
    24    23    24   ar
    25    11    12   am
    26    12    13    2
    27     3     4   ar
    28     4     5   ar
    29    27    28   ar
    30    28    29   ar
    31    29    30   ar
    32    30    31    1
    33    31    32   ar
    34    32    33   ar
    35    33    34   ar
    36    34    35    1
    37    34    36   ar
    38    30    25   ar
    39    36    31   ar
    40     5     1   ar
    41    12     6    1
    42    24    19   ar
