@<TRIPOS>MOLECULE
*****
 24 25 0 0 0
SMALL
GASTEIGER

@<TRIPOS>ATOM
      1 N         141.1745  140.1452  167.4967 N.am    1  UNL1       -0.2763
      2 C         139.7745  139.6900  167.2088 C.2     1  UNL1        0.2498
      3 O         138.8053  139.4868  168.3354 O.2     1  UNL1       -0.2699
      4 C         139.3438  139.4378  165.7942 C.ar    1  UNL1        0.0641
      5 C         139.3016  138.0362  165.2616 C.ar    1  UNL1        0.0054
      6 C         138.8709  137.7841  163.8471 C.ar    1  UNL1        0.0001
      7 C         138.4823  138.9336  162.9652 C.ar    1  UNL1        0.0047
      8 C         138.5245  140.3352  163.4978 C.ar    1  UNL1        0.0821
      9 C         138.9552  140.5873  164.9123 C.ar    1  UNL1        0.0659
     10 CL        138.9974  141.9889  165.4450 Cl      1  UNL1       -0.0822
     11 C         138.1359  141.4846  162.6160 C.3     1  UNL1        0.4194
     12 F         137.7473  142.6341  161.7341 F       1  UNL1       -0.1658
     13 F         139.5281  141.5282  162.0593 F       1  UNL1       -0.1658
     14 F         136.7437  141.4411  163.1727 F       1  UNL1       -0.1658
     15 C         141.6052  140.3974  168.9112 C.3     1  UNL1        0.0927
     16 C         141.3453  141.6447  169.7029 C.3     1  UNL1        0.0383
     17 C         141.9510  141.4648  171.0634 C.3     1  UNL1        0.0704
     18 N         142.5851  140.1063  171.1125 N.3     1  UNL1       -0.2960
     19 C         142.3715  139.4466  169.7824 C.3     1  UNL1        0.0887
     20 H         142.1524  139.5486  171.8489 H       1  UNL1        0.1233
     21 C         142.1437  140.3484  166.3700 C.3     1  UNL1        0.0936
     22 C         143.6042  138.2109  166.5892 C.3     1  UNL1        0.0018
     23 C         142.8198  139.1667  165.7401 C.3     1  UNL1        0.0199
     24 C         142.7115  138.9411  164.2612 C.3     1  UNL1        0.0018
@<TRIPOS>BOND
     1    22    23    1
     2    23    24    1
     3    23    21    1
     4    21     1    1
     5     1     2   am
     6     2     3    2
     7     2     4    1
     8     4     5   ar
     9     5     6   ar
    10     6     7   ar
    11     7     8   ar
    12     8    11    1
    13    11    12    1
    14    11    13    1
    15    11    14    1
    16     8     9   ar
    17     9    10    1
    18    15     1    1
    19    15    16    1
    20    16    17    1
    21    17    18    1
    22    18    19    1
    23     9     4   ar
    24    19    15    1
    25    18    20    1
@<TRIPOS>MOLECULE
*****
 24 25 0 0 0
SMALL
GASTEIGER

@<TRIPOS>ATOM
      1 N         141.9241  141.5242  164.1479 N.am    1  UNL1       -0.2763
      2 C         140.8297  142.0707  165.0160 C.2     1  UNL1        0.2498
      3 O         140.5179  143.5378  164.9952 O.2     1  UNL1       -0.2699
      4 C         140.0471  141.1501  165.9049 C.ar    1  UNL1        0.0641
      5 C         138.9730  140.2795  165.3232 C.ar    1  UNL1        0.0054
      6 C         138.1904  139.3590  166.2121 C.ar    1  UNL1        0.0001
      7 C         138.4819  139.3091  167.6827 C.ar    1  UNL1        0.0047
      8 C         139.5560  140.1797  168.2644 C.ar    1  UNL1        0.0821
      9 C         140.3386  141.1002  167.3755 C.ar    1  UNL1        0.0659
     10 CL        141.4127  141.9709  167.9571 Cl      1  UNL1       -0.0822
     11 C         139.8475  140.1298  169.7349 C.3     1  UNL1        0.4194
     12 F         140.1390  140.0799  171.2055 F       1  UNL1       -0.1658
     13 F         141.0727  139.3078  169.4641 F       1  UNL1       -0.1658
     14 F         138.6223  140.9517  170.0057 F       1  UNL1       -0.1658
     15 C         142.7068  142.4448  163.2590 C.3     1  UNL1        0.0927
     16 C         143.9706  143.1633  163.6283 C.3     1  UNL1        0.0383
     17 C         144.4080  143.9711  162.4423 C.3     1  UNL1        0.0704
     18 N         143.4143  143.7516  161.3402 N.3     1  UNL1       -0.2960
     19 C         142.3630  142.8083  161.8450 C.3     1  UNL1        0.0887
     20 H         143.8813  143.3472  160.5286 H       1  UNL1        0.1233
     21 C         142.2360  140.0571  164.1688 C.3     1  UNL1        0.0936
     22 C         143.1223  138.9964  166.3686 C.3     1  UNL1        0.0018
     23 C         143.3776  139.5447  164.9960 C.3     1  UNL1        0.0199
     24 C         144.7744  139.5805  164.4505 C.3     1  UNL1        0.0018
@<TRIPOS>BOND
     1    22    23    1
     2    23    24    1
     3    23    21    1
     4    21     1    1
     5     1     2   am
     6     2     3    2
     7     2     4    1
     8     4     5   ar
     9     5     6   ar
    10     6     7   ar
    11     7     8   ar
    12     8    11    1
    13    11    12    1
    14    11    13    1
    15    11    14    1
    16     8     9   ar
    17     9    10    1
    18    15     1    1
    19    15    16    1
    20    16    17    1
    21    17    18    1
    22    18    19    1
    23     9     4   ar
    24    19    15    1
    25    18    20    1
@<TRIPOS>MOLECULE
*****
 24 25 0 0 0
SMALL
GASTEIGER

@<TRIPOS>ATOM
      1 N         140.2239  141.1596  167.3911 N.am    1  UNL1       -0.2763
      2 C         140.3467  142.6518  167.3005 C.2     1  UNL1        0.2498
      3 O         140.5010  143.4688  168.5489 O.2     1  UNL1       -0.2699
      4 C         140.3152  143.3270  165.9614 C.ar    1  UNL1        0.0641
      5 C         139.0431  143.9465  165.4635 C.ar    1  UNL1        0.0054
      6 C         139.0116  144.6217  164.1245 C.ar    1  UNL1        0.0001
      7 C         140.2523  144.6774  163.2833 C.ar    1  UNL1        0.0047
      8 C         141.5244  144.0578  163.7811 C.ar    1  UNL1        0.0821
      9 C         141.5559  143.3827  165.1201 C.ar    1  UNL1        0.0659
     10 CL        142.8280  142.7631  165.6180 Cl      1  UNL1       -0.0822
     11 C         142.7651  144.1135  162.9399 C.3     1  UNL1        0.4194
     12 F         144.0057  144.1691  162.0987 F       1  UNL1       -0.1658
     13 F         142.4070  142.7932  162.3245 F       1  UNL1       -0.1658
     14 F         143.1231  145.4338  163.5553 F       1  UNL1       -0.1658
     15 C         140.2554  140.4844  168.7302 C.3     1  UNL1        0.0927
     16 C         139.1234  140.4209  169.7124 C.3     1  UNL1        0.0383
     17 C         139.5928  139.6514  170.9114 C.3     1  UNL1        0.0704
     18 N         141.0148  139.2394  170.6703 N.3     1  UNL1       -0.2960
     19 C         141.4243  139.7542  169.3222 C.3     1  UNL1        0.0887
     20 H         141.0885  138.2222  170.6893 H       1  UNL1        0.1233
     21 C         140.0696  140.3426  166.1427 C.3     1  UNL1        0.0936
     22 C         138.0848  140.5305  164.4767 C.3     1  UNL1        0.0018
     23 C         138.7054  139.9100  165.6932 C.3     1  UNL1        0.0199
     24 C         137.9619  138.8571  166.4602 C.3     1  UNL1        0.0018
@<TRIPOS>BOND
     1    22    23    1
     2    23    24    1
     3    23    21    1
     4    21     1    1
     5     1     2   am
     6     2     3    2
     7     2     4    1
     8     4     5   ar
     9     5     6   ar
    10     6     7   ar
    11     7     8   ar
    12     8    11    1
    13    11    12    1
    14    11    13    1
    15    11    14    1
    16     8     9   ar
    17     9    10    1
    18    15     1    1
    19    15    16    1
    20    16    17    1
    21    17    18    1
    22    18    19    1
    23     9     4   ar
    24    19    15    1
    25    18    20    1
@<TRIPOS>MOLECULE
*****
 24 25 0 0 0
SMALL
GASTEIGER

@<TRIPOS>ATOM
      1 N         140.5474  139.1357  164.3150 N.am    1  UNL1       -0.2763
      2 C         140.2292  140.4660  164.9305 C.2     1  UNL1        0.2498
      3 O         139.3109  141.4189  164.2242 O.2     1  UNL1       -0.2699
      4 C         140.8292  140.8435  166.2525 C.ar    1  UNL1        0.0641
      5 C         142.0272  141.7447  166.3024 C.ar    1  UNL1        0.0054
      6 C         142.6272  142.1221  167.6243 C.ar    1  UNL1        0.0001
      7 C         142.0291  141.5984  168.8963 C.ar    1  UNL1        0.0047
      8 C         140.8311  140.6972  168.8464 C.ar    1  UNL1        0.0821
      9 C         140.2312  140.3197  167.5245 C.ar    1  UNL1        0.0659
     10 CL        139.0331  139.4185  167.4746 Cl      1  UNL1       -0.0822
     11 C         140.2331  140.1734  170.1185 C.3     1  UNL1        0.4194
     12 F         139.6350  139.6497  171.3905 F       1  UNL1       -0.1658
     13 F         141.2709  139.0912  170.1608 F       1  UNL1       -0.1658
     14 F         139.1953  141.2556  170.0761 F       1  UNL1       -0.1658
     15 C         139.9473  138.7582  162.9930 C.3     1  UNL1        0.0927
     16 C         140.4376  139.1967  161.6449 C.3     1  UNL1        0.0383
     17 C         139.5450  138.5854  160.6057 C.3     1  UNL1        0.0704
     18 N         138.5031  137.7692  161.3117 N.3     1  UNL1       -0.2960
     19 C         138.7518  137.8760  162.7871 C.3     1  UNL1        0.0887
     20 H         138.5701  136.7944  161.0191 H       1  UNL1        0.1233
     21 C         141.4656  138.1828  165.0213 C.3     1  UNL1        0.0936
     22 C         143.6643  139.0255  163.9233 C.3     1  UNL1        0.0018
     23 C         142.9319  138.4849  165.1154 C.3     1  UNL1        0.0199
     24 C         143.6657  138.2464  166.4017 C.3     1  UNL1        0.0018
@<TRIPOS>BOND
     1    22    23    1
     2    23    24    1
     3    23    21    1
     4    21     1    1
     5     1     2   am
     6     2     3    2
     7     2     4    1
     8     4     5   ar
     9     5     6   ar
    10     6     7   ar
    11     7     8   ar
    12     8    11    1
    13    11    12    1
    14    11    13    1
    15    11    14    1
    16     8     9   ar
    17     9    10    1
    18    15     1    1
    19    15    16    1
    20    16    17    1
    21    17    18    1
    22    18    19    1
    23     9     4   ar
    24    19    15    1
    25    18    20    1
@<TRIPOS>MOLECULE
*****
 24 25 0 0 0
SMALL
GASTEIGER

@<TRIPOS>ATOM
      1 N         142.7261  141.5812  164.8170 N.am    1  UNL1       -0.2763
      2 C         142.3431  140.2099  165.2890 C.2     1  UNL1        0.2498
      3 O         143.0996  139.0102  164.8007 O.2     1  UNL1       -0.2699
      4 C         141.2037  140.0383  166.2494 C.ar    1  UNL1        0.0641
      5 C         139.8621  139.5911  165.7492 C.ar    1  UNL1        0.0054
      6 C         138.7227  139.4195  166.7095 C.ar    1  UNL1        0.0001
      7 C         138.9249  139.6951  168.1700 C.ar    1  UNL1        0.0047
      8 C         140.2664  140.1424  168.6702 C.ar    1  UNL1        0.0821
      9 C         141.4058  140.3140  167.7099 C.ar    1  UNL1        0.0659
     10 CL        142.7474  140.7612  168.2101 Cl      1  UNL1       -0.0822
     11 C         140.4685  140.4180  170.1308 C.3     1  UNL1        0.4194
     12 F         140.6707  140.6937  171.5913 F       1  UNL1       -0.1658
     13 F         139.8027  141.7526  169.9710 F       1  UNL1       -0.1658
     14 F         141.1344  139.0834  170.2905 F       1  UNL1       -0.1658
     15 C         143.8656  141.7528  163.8566 C.3     1  UNL1        0.0927
     16 C         143.7461  142.0359  162.3884 C.3     1  UNL1        0.0383
     17 C         145.1312  142.1295  161.8202 C.3     1  UNL1        0.0704
     18 N         146.1067  141.9042  162.9373 N.3     1  UNL1       -0.2960
     19 C         145.3244  141.6714  164.1958 C.3     1  UNL1        0.0887
     20 H         146.7028  142.7246  163.0471 H       1  UNL1        0.1233
     21 C         141.9696  142.7809  165.3052 C.3     1  UNL1        0.0936
     22 C         139.5498  143.6380  165.7051 C.3     1  UNL1        0.0018
     23 C         140.5875  143.0562  164.7914 C.3     1  UNL1        0.0199
     24 C         140.2430  142.7498  163.3641 C.3     1  UNL1        0.0018
@<TRIPOS>BOND
     1    22    23    1
     2    23    24    1
     3    23    21    1
     4    21     1    1
     5     1     2   am
     6     2     3    2
     7     2     4    1
     8     4     5   ar
     9     5     6   ar
    10     6     7   ar
    11     7     8   ar
    12     8    11    1
    13    11    12    1
    14    11    13    1
    15    11    14    1
    16     8     9   ar
    17     9    10    1
    18    15     1    1
    19    15    16    1
    20    16    17    1
    21    17    18    1
    22    18    19    1
    23     9     4   ar
    24    19    15    1
    25    18    20    1
@<TRIPOS>MOLECULE
*****
 24 25 0 0 0
SMALL
GASTEIGER

@<TRIPOS>ATOM
      1 N         141.2152  142.2523  167.3145 N.am    1  UNL1       -0.2763
      2 C         142.7092  142.3362  167.2108 C.2     1  UNL1        0.2498
      3 O         143.5380  142.5158  168.4480 O.2     1  UNL1       -0.2699
      4 C         143.3745  142.2405  165.8697 C.ar    1  UNL1        0.0641
      5 C         143.9308  143.4722  165.2189 C.ar    1  UNL1        0.0054
      6 C         144.5960  143.3764  163.8779 C.ar    1  UNL1        0.0001
      7 C         144.7050  142.0491  163.1878 C.ar    1  UNL1        0.0047
      8 C         144.1487  140.8175  163.8386 C.ar    1  UNL1        0.0821
      9 C         143.4835  140.9132  165.1796 C.ar    1  UNL1        0.0659
     10 CL        142.9272  139.6815  165.8305 Cl      1  UNL1       -0.0822
     11 C         144.2577  139.4901  163.1485 C.3     1  UNL1        0.4194
     12 F         144.3667  138.1628  162.4583 F       1  UNL1       -0.1658
     13 F         143.1003  139.8538  162.2664 F       1  UNL1       -0.1658
     14 F         145.4151  139.1265  164.0306 F       1  UNL1       -0.1658
     15 C         140.5499  142.3479  168.6555 C.3     1  UNL1        0.0927
     16 C         140.4371  143.5842  169.4975 C.3     1  UNL1        0.0383
     17 C         139.6981  143.2245  170.7524 C.3     1  UNL1        0.0704
     18 N         139.3543  141.7659  170.6859 N.3     1  UNL1       -0.2960
     19 C         139.8807  141.2242  169.3900 C.3     1  UNL1        0.0887
     20 H         138.3420  141.6468  170.7251 H       1  UNL1        0.1233
     21 C         140.3864  142.0726  166.0772 C.3     1  UNL1        0.0936
     22 C         139.2243  144.3752  165.7643 C.3     1  UNL1        0.0018
     23 C         140.0588  143.2560  165.2156 C.3     1  UNL1        0.0199
     24 C         140.5657  143.3203  163.8054 C.3     1  UNL1        0.0018
@<TRIPOS>BOND
     1    22    23    1
     2    23    24    1
     3    23    21    1
     4    21     1    1
     5     1     2   am
     6     2     3    2
     7     2     4    1
     8     4     5   ar
     9     5     6   ar
    10     6     7   ar
    11     7     8   ar
    12     8    11    1
    13    11    12    1
    14    11    13    1
    15    11    14    1
    16     8     9   ar
    17     9    10    1
    18    15     1    1
    19    15    16    1
    20    16    17    1
    21    17    18    1
    22    18    19    1
    23     9     4   ar
    24    19    15    1
    25    18    20    1
@<TRIPOS>MOLECULE
*****
 24 25 0 0 0
SMALL
GASTEIGER

@<TRIPOS>ATOM
      1 N         142.2258  140.3534  166.9437 N.am    1  UNL1       -0.2763
      2 C         142.8075  139.0796  166.4061 C.2     1  UNL1        0.2498
      3 O         143.8055  138.3091  167.2186 O.2     1  UNL1       -0.2699
      4 C         142.3911  138.5763  165.0557 C.ar    1  UNL1        0.0641
      5 C         141.1442  137.7547  164.9133 C.ar    1  UNL1        0.0054
      6 C         140.7279  137.2514  163.5630 C.ar    1  UNL1        0.0001
      7 C         141.5584  137.5697  162.3551 C.ar    1  UNL1        0.0047
      8 C         142.8052  138.3913  162.4976 C.ar    1  UNL1        0.0821
      9 C         143.2216  138.8946  163.8478 C.ar    1  UNL1        0.0659
     10 CL        144.4685  139.7162  163.9903 Cl      1  UNL1       -0.0822
     11 C         143.6358  138.7096  161.2897 C.3     1  UNL1        0.4194
     12 F         144.4663  139.0279  160.0818 F       1  UNL1       -0.1658
     13 F         144.3534  137.4008  161.4382 F       1  UNL1       -0.1658
     14 F         142.9181  140.0184  161.1411 F       1  UNL1       -0.1658
     15 C         142.6422  140.8567  168.2941 C.3     1  UNL1        0.0927
     16 C         143.2827  142.1823  168.5818 C.3     1  UNL1        0.0383
     17 C         143.5276  142.2677  170.0593 C.3     1  UNL1        0.0704
     18 N         143.0384  140.9949  170.6846 N.3     1  UNL1       -0.2960
     19 C         142.4913  140.1229  169.5936 C.3     1  UNL1        0.0887
     20 H         142.3052  141.2019  171.3628 H       1  UNL1        0.1233
     21 C         141.2278  141.1239  166.1312 C.3     1  UNL1        0.0936
     22 C         140.9526  141.8195  163.6431 C.3     1  UNL1        0.0018
     23 C         141.6832  141.9268  164.9487 C.3     1  UNL1        0.0199
     24 C         142.8691  142.8369  165.0719 C.3     1  UNL1        0.0018
@<TRIPOS>BOND
     1    22    23    1
     2    23    24    1
     3    23    21    1
     4    21     1    1
     5     1     2   am
     6     2     3    2
     7     2     4    1
     8     4     5   ar
     9     5     6   ar
    10     6     7   ar
    11     7     8   ar
    12     8    11    1
    13    11    12    1
    14    11    13    1
    15    11    14    1
    16     8     9   ar
    17     9    10    1
    18    15     1    1
    19    15    16    1
    20    16    17    1
    21    17    18    1
    22    18    19    1
    23     9     4   ar
    24    19    15    1
    25    18    20    1
@<TRIPOS>MOLECULE
*****
 24 25 0 0 0
SMALL
GASTEIGER

@<TRIPOS>ATOM
      1 N         141.9253  140.1369  164.7725 N.am    1  UNL1       -0.2763
      2 C         142.2164  139.7566  166.1939 C.2     1  UNL1        0.2498
      3 O         143.3697  138.8499  166.5066 O.2     1  UNL1       -0.2699
      4 C         141.3542  140.2830  167.3028 C.ar    1  UNL1        0.0641
      5 C         140.0961  139.5598  167.6825 C.ar    1  UNL1        0.0054
      6 C         139.2340  140.0862  168.7913 C.ar    1  UNL1        0.0001
      7 C         139.6299  141.3358  169.5205 C.ar    1  UNL1        0.0047
      8 C         140.8880  142.0590  169.1409 C.ar    1  UNL1        0.0821
      9 C         141.7501  141.5326  168.0320 C.ar    1  UNL1        0.0659
     10 CL        143.0083  142.2559  167.6523 Cl      1  UNL1       -0.0822
     11 C         141.2839  143.3087  169.8700 C.3     1  UNL1        0.4194
     12 F         141.6799  144.5583  170.5992 F       1  UNL1       -0.1658
     13 F         140.2605  144.0849  169.0954 F       1  UNL1       -0.1658
     14 F         142.3073  142.5324  170.6447 F       1  UNL1       -0.1658
     15 C         142.7875  139.6105  163.6636 C.3     1  UNL1        0.0927
     16 C         142.6105  138.3001  162.9555 C.3     1  UNL1        0.0383
     17 C         143.6917  138.1818  161.9224 C.3     1  UNL1        0.0704
     18 N         144.5368  139.4192  161.9921 N.3     1  UNL1       -0.2960
     19 C         143.9780  140.3021  163.0682 C.3     1  UNL1        0.0887
     20 H         144.5114  139.9066  161.0965 H       1  UNL1        0.1233
     21 C         140.7720  141.0436  164.4598 C.3     1  UNL1        0.0936
     22 C         139.7937  143.2422  165.4393 C.3     1  UNL1        0.0018
     23 C         140.8873  142.5179  164.7117 C.3     1  UNL1        0.0199
     24 C         142.0961  143.2678  164.2360 C.3     1  UNL1        0.0018
@<TRIPOS>BOND
     1    22    23    1
     2    23    24    1
     3    23    21    1
     4    21     1    1
     5     1     2   am
     6     2     3    2
     7     2     4    1
     8     4     5   ar
     9     5     6   ar
    10     6     7   ar
    11     7     8   ar
    12     8    11    1
    13    11    12    1
    14    11    13    1
    15    11    14    1
    16     8     9   ar
    17     9    10    1
    18    15     1    1
    19    15    16    1
    20    16    17    1
    21    17    18    1
    22    18    19    1
    23     9     4   ar
    24    19    15    1
    25    18    20    1
@<TRIPOS>MOLECULE
*****
 24 25 0 0 0
SMALL
GASTEIGER

@<TRIPOS>ATOM
      1 N         140.9528  140.3988  167.6261 N.am    1  UNL1       -0.2763
      2 C         142.0835  139.5497  167.1257 C.2     1  UNL1        0.2498
      3 O         143.1158  139.0344  168.0842 O.2     1  UNL1       -0.2699
      4 C         142.1819  139.2159  165.6665 C.ar    1  UNL1        0.0641
      5 C         141.5579  137.9571  165.1414 C.ar    1  UNL1        0.0054
      6 C         141.6564  137.6233  163.6824 C.ar    1  UNL1        0.0001
      7 C         142.3789  138.5483  162.7485 C.ar    1  UNL1        0.0047
      8 C         143.0029  139.8072  163.2736 C.ar    1  UNL1        0.0821
      9 C         142.9045  140.1410  164.7326 C.ar    1  UNL1        0.0659
     10 CL        143.5285  141.3999  165.2578 Cl      1  UNL1       -0.0822
     11 C         143.7255  140.7323  162.3397 C.3     1  UNL1        0.4194
     12 F         144.4480  141.6573  161.4058 F       1  UNL1       -0.1658
     13 F         145.0336  140.1211  162.7463 F       1  UNL1       -0.1658
     14 F         142.4174  141.3434  161.9331 F       1  UNL1       -0.1658
     15 C         140.8543  140.7327  169.0852 C.3     1  UNL1        0.0927
     16 C         141.0180  142.0952  169.6909 C.3     1  UNL1        0.0383
     17 C         140.8398  141.9673  171.1748 C.3     1  UNL1        0.0704
     18 N         140.5660  140.5257  171.4862 N.3     1  UNL1       -0.2960
     19 C         140.5750  139.7627  170.1948 C.3     1  UNL1        0.0887
     20 H         139.6545  140.4355  171.9351 H       1  UNL1        0.1233
     21 C         139.9205  140.9142  166.6676 C.3     1  UNL1        0.0936
     22 C         138.2376  138.9870  167.1194 C.3     1  UNL1        0.0018
     23 C         138.8217  140.0107  166.1916 C.3     1  UNL1        0.0199
     24 C         138.3070  140.1310  164.7878 C.3     1  UNL1        0.0018
@<TRIPOS>BOND
     1    22    23    1
     2    23    24    1
     3    23    21    1
     4    21     1    1
     5     1     2   am
     6     2     3    2
     7     2     4    1
     8     4     5   ar
     9     5     6   ar
    10     6     7   ar
    11     7     8   ar
    12     8    11    1
    13    11    12    1
    14    11    13    1
    15    11    14    1
    16     8     9   ar
    17     9    10    1
    18    15     1    1
    19    15    16    1
    20    16    17    1
    21    17    18    1
    22    18    19    1
    23     9     4   ar
    24    19    15    1
    25    18    20    1
