@<TRIPOS>MOLECULE
*****
 31 33 0 0 0
SMALL
GASTEIGER

@<TRIPOS>ATOM
      1 C         141.5177  140.3881  167.3869 C.ar    1  UNL1        0.0555
      2 C         141.1248  141.1166  166.1360 C.ar    1  UNL1        0.0168
      3 C         141.7871  140.7804  164.8328 C.ar    1  UNL1        0.0505
      4 C         142.8422  139.7155  164.7806 C.ar    1  UNL1        0.0170
      5 C         143.2351  138.9870  166.0315 C.ar    1  UNL1        0.0307
      6 C         142.5729  139.3232  167.3346 C.ar    1  UNL1        0.1402
      7 F         142.9658  138.5947  168.5856 F       1  UNL1       -0.2044
      8 C         139.7764  139.8981  168.0552 C.3     1  UNL1        0.0638
      9 C         140.8554  140.7244  168.6902 C.3     1  UNL1        0.2513
     10 N         142.1644  141.4338  168.8725 N.2     1  UNL1       -0.0663
     11 C         142.4364  142.1925  170.1375 C.2     1  UNL1        0.3195
     12 N         143.7454  142.9020  170.3199 N.pl3   1  UNL1       -0.2480
     13 C         141.3993  142.2418  171.2202 C.3     1  UNL1        0.2611
     14 O         140.0904  141.5324  171.0379 O.3     1  UNL1       -0.3108
     15 C         139.8184  140.7736  169.7729 C.3     1  UNL1        0.3281
     16 F         138.5094  140.0642  169.5904 F       1  UNL1       -0.1989
     17 H         144.4260  142.8696  169.6092 H       1  UNL1        0.2882
     18 H         143.9239  143.4000  171.1501 H       1  UNL1        0.2882
     19 N         141.3942  141.5089  163.5819 N.am    1  UNL1       -0.2791
     20 C         141.9773  142.8588  163.2856 C.2     1  UNL1        0.2681
     21 O         142.9533  143.4802  164.2404 O.2     1  UNL1       -0.2681
     22 H         140.7536  141.1011  162.9553 H       1  UNL1        0.1552
     23 C         141.5845  143.5874  162.0347 C.ar    1  UNL1        0.1453
     24 N         142.2080  143.2146  160.7224 N.ar    1  UNL1       -0.2377
     25 C         141.8151  143.9432  159.4714 C.ar    1  UNL1        0.1093
     26 C         140.7987  145.0446  159.5329 C.ar    1  UNL1        0.0884
     27 C         140.1752  145.4174  160.8452 C.ar    1  UNL1        0.0249
     28 C         140.5680  144.6889  162.0961 C.ar    1  UNL1        0.0804
     29 CL        139.9444  145.0617  163.4084 Cl      1  UNL1       -0.0805
     30 C         140.4059  145.7732  158.2819 C.1     1  UNL1        0.1020
     31 N         140.0131  146.5018  157.0310 N.1     1  UNL1       -0.1908
@<TRIPOS>BOND
     1     9     8    1
     2     9     1    1
     3     1     2   ar
     4     2     3   ar
     5     3    19    1
     6    19    20   am
     7    20    21    2
     8    20    23    1
     9    23    24   ar
    10    24    25   ar
    11    25    26   ar
    12    26    30    1
    13    30    31    3
    14    26    27   ar
    15    27    28   ar
    16    28    29    1
    17     3     4   ar
    18     4     5   ar
    19     5     6   ar
    20     6     7    1
    21     9    10    1
    22    10    11    2
    23    11    12    1
    24    11    13    1
    25    13    14    1
    26    14    15    1
    27    15    16    1
    28    15     9    1
    29     6     1   ar
    30    28    23   ar
    31    19    22    1
    32    12    17    1
    33    12    18    1
@<TRIPOS>MOLECULE
*****
 31 33 0 0 0
SMALL
GASTEIGER

@<TRIPOS>ATOM
      1 C         140.1952  140.4688  167.7847 C.ar    1  UNL1        0.0555
      2 C         140.6965  140.4608  166.3710 C.ar    1  UNL1        0.0168
      3 C         139.9047  139.7735  165.2984 C.ar    1  UNL1        0.0505
      4 C         138.6115  139.0941  165.6395 C.ar    1  UNL1        0.0170
      5 C         138.1102  139.1021  167.0532 C.ar    1  UNL1        0.0307
      6 C         138.9020  139.7894  168.1258 C.ar    1  UNL1        0.1402
      7 F         138.4007  139.7974  169.5396 F       1  UNL1       -0.2044
      8 C         140.2299  142.3261  168.3024 C.3     1  UNL1        0.0638
      9 C         140.9870  141.1561  168.8575 C.3     1  UNL1        0.2513
     10 N         141.4690  139.7475  169.0400 N.2     1  UNL1       -0.0663
     11 C         142.4800  139.4325  170.1024 C.2     1  UNL1        0.3195
     12 N         142.9621  138.0238  170.2849 N.pl3   1  UNL1       -0.2480
     13 C         143.0088  140.5262  170.9823 C.3     1  UNL1        0.2611
     14 O         142.5268  141.9348  170.7998 O.3     1  UNL1       -0.3108
     15 C         141.5158  142.2498  169.7374 C.3     1  UNL1        0.3281
     16 F         141.0337  143.6584  169.5547 F       1  UNL1       -0.1989
     17 H         142.6149  137.3060  169.7074 H       1  UNL1        0.2882
     18 H         143.6256  137.8171  170.9823 H       1  UNL1        0.2882
     19 N         140.4060  139.7655  163.8846 N.am    1  UNL1       -0.2791
     20 C         141.1361  138.5672  163.3546 C.2     1  UNL1        0.2681
     21 O         141.3650  137.3769  164.2383 O.2     1  UNL1       -0.2681
     22 H         140.2557  140.5467  163.3046 H       1  UNL1        0.1552
     23 C         141.6374  138.5591  161.9409 C.ar    1  UNL1        0.1453
     24 N         140.6719  138.4028  160.8036 N.ar    1  UNL1       -0.2377
     25 C         141.1733  138.3948  159.3899 C.ar    1  UNL1        0.1093
     26 C         142.6401  138.5430  159.1134 C.ar    1  UNL1        0.0884
     27 C         143.6056  138.6993  160.2507 C.ar    1  UNL1        0.0249
     28 C         143.1043  138.7074  161.6644 C.ar    1  UNL1        0.0804
     29 CL        144.0698  138.8636  162.8016 Cl      1  UNL1       -0.0805
     30 C         143.1414  138.5350  157.6997 C.1     1  UNL1        0.1020
     31 N         143.6427  138.5269  156.2860 N.1     1  UNL1       -0.1908
@<TRIPOS>BOND
     1     9     8    1
     2     9     1    1
     3     1     2   ar
     4     2     3   ar
     5     3    19    1
     6    19    20   am
     7    20    21    2
     8    20    23    1
     9    23    24   ar
    10    24    25   ar
    11    25    26   ar
    12    26    30    1
    13    30    31    3
    14    26    27   ar
    15    27    28   ar
    16    28    29    1
    17     3     4   ar
    18     4     5   ar
    19     5     6   ar
    20     6     7    1
    21     9    10    1
    22    10    11    2
    23    11    12    1
    24    11    13    1
    25    13    14    1
    26    14    15    1
    27    15    16    1
    28    15     9    1
    29     6     1   ar
    30    28    23   ar
    31    19    22    1
    32    12    17    1
    33    12    18    1
@<TRIPOS>MOLECULE
*****
 31 33 0 0 0
SMALL
GASTEIGER

@<TRIPOS>ATOM
      1 C         141.9006  141.8889  167.5656 C.ar    1  UNL1        0.0555
      2 C         141.0661  141.8082  166.3218 C.ar    1  UNL1        0.0168
      3 C         141.6250  142.2787  165.0118 C.ar    1  UNL1        0.0505
      4 C         143.0185  142.8298  164.9455 C.ar    1  UNL1        0.0170
      5 C         143.8530  142.9106  166.1893 C.ar    1  UNL1        0.0307
      6 C         143.2941  142.4401  167.4993 C.ar    1  UNL1        0.1402
      7 F         144.1287  142.5208  168.7431 F       1  UNL1       -0.2044
      8 C         141.8924  140.1266  168.3484 C.3     1  UNL1        0.0638
      9 C         141.3417  141.4185  168.8757 C.3     1  UNL1        0.2513
     10 N         140.9852  142.8736  168.9479 N.2     1  UNL1       -0.0663
     11 C         140.2610  143.4098  170.1472 C.2     1  UNL1        0.3195
     12 N         139.9044  144.8650  170.2194 N.pl3   1  UNL1       -0.2480
     13 C         139.8933  142.4906  171.2741 C.3     1  UNL1        0.2611
     14 O         140.2499  141.0354  171.2019 O.3     1  UNL1       -0.3108
     15 C         140.9741  140.4993  170.0027 C.3     1  UNL1        0.3281
     16 F         141.3306  139.0441  169.9304 F       1  UNL1       -0.1989
     17 H         140.1457  145.4682  169.4797 H       1  UNL1        0.2882
     18 H         139.4291  145.2169  171.0064 H       1  UNL1        0.2882
     19 N         140.7904  142.1980  163.7680 N.am    1  UNL1       -0.2791
     20 C         140.8670  140.9835  162.8909 C.2     1  UNL1        0.2681
     21 O         141.7782  139.8498  163.2576 O.2     1  UNL1       -0.2681
     22 H         140.1924  142.9421  163.5273 H       1  UNL1        0.1552
     23 C         140.0325  140.9028  161.6471 C.ar    1  UNL1        0.1453
     24 N         140.5788  141.4049  160.3435 N.ar    1  UNL1       -0.2377
     25 C         139.7442  141.3242  159.0997 C.ar    1  UNL1        0.1093
     26 C         138.3634  140.7413  159.1595 C.ar    1  UNL1        0.0884
     27 C         137.8171  140.2392  160.4631 C.ar    1  UNL1        0.0249
     28 C         138.6516  140.3199  161.7069 C.ar    1  UNL1        0.0804
     29 CL        138.1054  139.8178  163.0105 Cl      1  UNL1       -0.0805
     30 C         137.5289  140.6606  157.9157 C.1     1  UNL1        0.1020
     31 N         136.6943  140.5799  156.6719 N.1     1  UNL1       -0.1908
@<TRIPOS>BOND
     1     9     8    1
     2     9     1    1
     3     1     2   ar
     4     2     3   ar
     5     3    19    1
     6    19    20   am
     7    20    21    2
     8    20    23    1
     9    23    24   ar
    10    24    25   ar
    11    25    26   ar
    12    26    30    1
    13    30    31    3
    14    26    27   ar
    15    27    28   ar
    16    28    29    1
    17     3     4   ar
    18     4     5   ar
    19     5     6   ar
    20     6     7    1
    21     9    10    1
    22    10    11    2
    23    11    12    1
    24    11    13    1
    25    13    14    1
    26    14    15    1
    27    15    16    1
    28    15     9    1
    29     6     1   ar
    30    28    23   ar
    31    19    22    1
    32    12    17    1
    33    12    18    1
@<TRIPOS>MOLECULE
*****
 31 33 0 0 0
SMALL
GASTEIGER

@<TRIPOS>ATOM
      1 C         140.2826  141.3471  167.6614 C.ar    1  UNL1        0.0555
      2 C         140.6115  141.9359  166.3216 C.ar    1  UNL1        0.0168
      3 C         139.9986  141.3614  165.0790 C.ar    1  UNL1        0.0505
      4 C         139.0567  140.1981  165.1761 C.ar    1  UNL1        0.0170
      5 C         138.7277  139.6092  166.5159 C.ar    1  UNL1        0.0307
      6 C         139.3407  140.1837  167.7585 C.ar    1  UNL1        0.1402
      7 F         139.0117  139.5949  169.0984 F       1  UNL1       -0.2044
      8 C         140.1753  143.1310  168.3859 C.3     1  UNL1        0.0638
      9 C         140.8955  141.9216  168.9041 C.3     1  UNL1        0.2513
     10 N         141.4029  140.5127  168.9908 N.2     1  UNL1       -0.0663
     11 C         142.2730  140.0982  170.1402 C.2     1  UNL1        0.3195
     12 N         142.7804  138.6893  170.2268 N.pl3   1  UNL1       -0.2480
     13 C         142.6358  141.0928  171.2029 C.3     1  UNL1        0.2611
     14 O         142.1285  142.5017  171.1162 O.3     1  UNL1       -0.3108
     15 C         141.2583  142.9161  169.9669 C.3     1  UNL1        0.3281
     16 F         140.7509  144.3250  169.8801 F       1  UNL1       -0.1989
     17 H         142.5423  138.0366  169.5293 H       1  UNL1        0.2882
     18 H         143.3515  138.4172  170.9812 H       1  UNL1        0.2882
     19 N         140.3275  141.9503  163.7392 N.am    1  UNL1       -0.2791
     20 C         139.4268  142.9855  163.1333 C.2     1  UNL1        0.2681
     21 O         138.1971  143.4318  163.8674 O.2     1  UNL1       -0.2681
     22 H         141.1346  141.6573  163.2574 H       1  UNL1        0.1552
     23 C         139.7557  143.5744  161.7936 C.ar    1  UNL1        0.1453
     24 N         139.2419  142.9255  160.5426 N.ar    1  UNL1       -0.2377
     25 C         139.5708  143.5145  159.2027 C.ar    1  UNL1        0.1093
     26 C         140.4135  144.7521  159.1140 C.ar    1  UNL1        0.0884
     27 C         140.9273  145.4010  160.3650 C.ar    1  UNL1        0.0249
     28 C         140.5984  144.8121  161.7047 C.ar    1  UNL1        0.0804
     29 CL        141.1123  145.4609  162.9557 Cl      1  UNL1       -0.0805
     30 C         140.7424  145.3410  157.7742 C.1     1  UNL1        0.1020
     31 N         141.0713  145.9299  156.4344 N.1     1  UNL1       -0.1908
@<TRIPOS>BOND
     1     9     8    1
     2     9     1    1
     3     1     2   ar
     4     2     3   ar
     5     3    19    1
     6    19    20   am
     7    20    21    2
     8    20    23    1
     9    23    24   ar
    10    24    25   ar
    11    25    26   ar
    12    26    30    1
    13    30    31    3
    14    26    27   ar
    15    27    28   ar
    16    28    29    1
    17     3     4   ar
    18     4     5   ar
    19     5     6   ar
    20     6     7    1
    21     9    10    1
    22    10    11    2
    23    11    12    1
    24    11    13    1
    25    13    14    1
    26    14    15    1
    27    15    16    1
    28    15     9    1
    29     6     1   ar
    30    28    23   ar
    31    19    22    1
    32    12    17    1
    33    12    18    1
@<TRIPOS>MOLECULE
*****
 31 33 0 0 0
SMALL
GASTEIGER

@<TRIPOS>ATOM
      1 C         140.6478  140.6505  167.3970 C.ar    1  UNL1        0.0555
      2 C         141.4478  140.7839  166.1352 C.ar    1  UNL1        0.0168
      3 C         140.9633  140.1428  164.8687 C.ar    1  UNL1        0.0505
      4 C         139.6787  139.3683  164.8640 C.ar    1  UNL1        0.0170
      5 C         138.8787  139.2349  166.1258 C.ar    1  UNL1        0.0307
      6 C         139.3632  139.8760  167.3923 C.ar    1  UNL1        0.1402
      7 F         138.5632  139.7427  168.6542 F       1  UNL1       -0.2044
      8 C         140.4493  142.4636  168.0232 C.3     1  UNL1        0.0638
      9 C         141.1324  141.2917  168.6636 C.3     1  UNL1        0.2513
     10 N         141.6471  139.8971  168.8642 N.2     1  UNL1       -0.0663
     11 C         142.4091  139.5507  170.1088 C.2     1  UNL1        0.3195
     12 N         142.9239  138.1561  170.3094 N.pl3   1  UNL1       -0.2480
     13 C         142.6565  140.5989  171.1530 C.3     1  UNL1        0.2611
     14 O         142.1417  141.9934  170.9524 O.3     1  UNL1       -0.3108
     15 C         141.3797  142.3399  169.7078 C.3     1  UNL1        0.3281
     16 F         140.8649  143.7344  169.5071 F       1  UNL1       -0.1989
     17 H         142.7615  137.4682  169.6240 H       1  UNL1        0.2882
     18 H         143.4240  137.9287  171.1263 H       1  UNL1        0.2882
     19 N         141.7633  140.2761  163.6068 N.am    1  UNL1       -0.2791
     20 C         141.7345  141.5606  162.8328 C.2     1  UNL1        0.2681
     21 O         140.9057  142.7118  163.3206 O.2     1  UNL1       -0.2681
     22 H         142.3072  139.5205  163.2867 H       1  UNL1        0.1552
     23 C         142.5345  141.6940  161.5710 C.ar    1  UNL1        0.1453
     24 N         142.0080  141.1274  160.2857 N.ar    1  UNL1       -0.2377
     25 C         142.8080  141.2608  159.0239 C.ar    1  UNL1        0.1093
     26 C         144.1345  141.9608  159.0473 C.ar    1  UNL1        0.0884
     27 C         144.6609  142.5274  160.3325 C.ar    1  UNL1        0.0249
     28 C         143.8609  142.3940  161.5943 C.ar    1  UNL1        0.0804
     29 CL        144.3874  142.9606  162.8796 Cl      1  UNL1       -0.0805
     30 C         144.9344  142.0942  157.7855 C.1     1  UNL1        0.1020
     31 N         145.7344  142.2276  156.5236 N.1     1  UNL1       -0.1908
@<TRIPOS>BOND
     1     9     8    1
     2     9     1    1
     3     1     2   ar
     4     2     3   ar
     5     3    19    1
     6    19    20   am
     7    20    21    2
     8    20    23    1
     9    23    24   ar
    10    24    25   ar
    11    25    26   ar
    12    26    30    1
    13    30    31    3
    14    26    27   ar
    15    27    28   ar
    16    28    29    1
    17     3     4   ar
    18     4     5   ar
    19     5     6   ar
    20     6     7    1
    21     9    10    1
    22    10    11    2
    23    11    12    1
    24    11    13    1
    25    13    14    1
    26    14    15    1
    27    15    16    1
    28    15     9    1
    29     6     1   ar
    30    28    23   ar
    31    19    22    1
    32    12    17    1
    33    12    18    1
@<TRIPOS>MOLECULE
*****
 31 33 0 0 0
SMALL
GASTEIGER

@<TRIPOS>ATOM
      1 C         140.9289  141.8717  167.3384 C.ar    1  UNL1        0.0555
      2 C         141.1306  140.9844  166.1460 C.ar    1  UNL1        0.0168
      3 C         140.5740  141.3834  164.8115 C.ar    1  UNL1        0.0505
      4 C         139.8156  142.6697  164.6695 C.ar    1  UNL1        0.0170
      5 C         139.6139  143.5570  165.8619 C.ar    1  UNL1        0.0307
      6 C         140.1705  143.1580  167.1964 C.ar    1  UNL1        0.1402
      7 F         139.9688  144.0454  168.3889 F       1  UNL1       -0.2044
      8 C         142.7121  142.0668  168.0462 C.3     1  UNL1        0.0638
      9 C         141.4856  141.4727  168.6730 C.3     1  UNL1        0.2513
     10 N         140.0658  141.0172  168.8363 N.2     1  UNL1       -0.0663
     11 C         139.6287  140.3691  170.1164 C.2     1  UNL1        0.3195
     12 N         138.2088  139.9136  170.2797 N.pl3   1  UNL1       -0.2480
     13 C         140.6113  140.1764  171.2333 C.3     1  UNL1        0.2611
     14 O         142.0311  140.6319  171.0700 O.3     1  UNL1       -0.3108
     15 C         142.4683  141.2800  169.7898 C.3     1  UNL1        0.3281
     16 F         143.8881  141.7356  169.6264 F       1  UNL1       -0.1989
     17 H         137.5639  140.0400  169.5467 H       1  UNL1        0.2882
     18 H         137.9219  139.4882  171.1199 H       1  UNL1        0.2882
     19 N         140.7757  140.4960  163.6190 N.am    1  UNL1       -0.2791
     20 C         141.8693  140.7962  162.6372 C.2     1  UNL1        0.2681
     21 O         142.7611  141.9838  162.8479 O.2     1  UNL1       -0.2681
     22 H         140.1903  139.7166  163.4807 H       1  UNL1        0.1552
     23 C         142.0710  139.9090  161.4447 C.ar    1  UNL1        0.1453
     24 N         141.2386  140.1075  160.2128 N.ar    1  UNL1       -0.2377
     25 C         141.4404  139.2202  159.0203 C.ar    1  UNL1        0.1093
     26 C         142.4745  138.1344  159.0598 C.ar    1  UNL1        0.0884
     27 C         143.3069  137.9358  160.2918 C.ar    1  UNL1        0.0249
     28 C         143.1051  138.8231  161.4842 C.ar    1  UNL1        0.0804
     29 CL        143.9375  138.6245  162.7162 Cl      1  UNL1       -0.0805
     30 C         142.6762  137.2471  157.8673 C.1     1  UNL1        0.1020
     31 N         142.8780  136.3597  156.6748 N.1     1  UNL1       -0.1908
@<TRIPOS>BOND
     1     9     8    1
     2     9     1    1
     3     1     2   ar
     4     2     3   ar
     5     3    19    1
     6    19    20   am
     7    20    21    2
     8    20    23    1
     9    23    24   ar
    10    24    25   ar
    11    25    26   ar
    12    26    30    1
    13    30    31    3
    14    26    27   ar
    15    27    28   ar
    16    28    29    1
    17     3     4   ar
    18     4     5   ar
    19     5     6   ar
    20     6     7    1
    21     9    10    1
    22    10    11    2
    23    11    12    1
    24    11    13    1
    25    13    14    1
    26    14    15    1
    27    15    16    1
    28    15     9    1
    29     6     1   ar
    30    28    23   ar
    31    19    22    1
    32    12    17    1
    33    12    18    1
@<TRIPOS>MOLECULE
*****
 31 33 0 0 0
SMALL
GASTEIGER

@<TRIPOS>ATOM
      1 C         142.0639  140.7925  166.7050 C.ar    1  UNL1        0.0555
      2 C         141.6768  141.5088  165.4453 C.ar    1  UNL1        0.0168
      3 C         142.1204  140.9781  164.1143 C.ar    1  UNL1        0.0505
      4 C         142.9510  139.7311  164.0430 C.ar    1  UNL1        0.0170
      5 C         143.3380  139.0148  165.3028 C.ar    1  UNL1        0.0307
      6 C         142.8945  139.5455  166.6338 C.ar    1  UNL1        0.1402
      7 F         143.2816  138.8291  167.8936 F       1  UNL1       -0.2044
      8 C         142.8994  142.0877  167.8640 C.3     1  UNL1        0.0638
      9 C         141.6203  141.3231  168.0361 C.3     1  UNL1        0.2513
     10 N         140.4954  140.3744  167.7460 N.2     1  UNL1       -0.0663
     11 C         139.3711  140.2217  168.7271 C.2     1  UNL1        0.3195
     12 N         138.2461  139.2729  168.4369 N.pl3   1  UNL1       -0.2480
     13 C         139.3717  141.0179  169.9984 C.3     1  UNL1        0.2611
     14 O         140.4967  141.9667  170.2885 O.3     1  UNL1       -0.3108
     15 C         141.6210  142.1193  169.3074 C.3     1  UNL1        0.3281
     16 F         142.7460  143.0681  169.5975 F       1  UNL1       -0.1989
     17 H         138.2456  138.7503  167.6026 H       1  UNL1        0.2882
     18 H         137.5081  139.1727  169.0809 H       1  UNL1        0.2882
     19 N         141.7333  141.6945  162.8544 N.am    1  UNL1       -0.2791
     20 C         142.4474  142.9524  162.4574 C.2     1  UNL1        0.2681
     21 O         143.5485  143.4940  163.3201 O.2     1  UNL1       -0.2681
     22 H         141.0106  141.3390  162.2882 H       1  UNL1        0.1552
     23 C         142.0604  143.6688  161.1976 C.ar    1  UNL1        0.1453
     24 N         142.7195  143.3108  159.8986 N.ar    1  UNL1       -0.2377
     25 C         142.3324  144.0272  158.6388 C.ar    1  UNL1        0.1093
     26 C         141.2863  145.1015  158.6780 C.ar    1  UNL1        0.0884
     27 C         140.6272  145.4594  159.9771 C.ar    1  UNL1        0.0249
     28 C         141.0142  144.7431  161.2368 C.ar    1  UNL1        0.0804
     29 CL        140.3551  145.1010  162.5358 Cl      1  UNL1       -0.0805
     30 C         140.8993  145.8178  157.4183 C.1     1  UNL1        0.1020
     31 N         140.5123  146.5342  156.1584 N.1     1  UNL1       -0.1908
@<TRIPOS>BOND
     1     9     8    1
     2     9     1    1
     3     1     2   ar
     4     2     3   ar
     5     3    19    1
     6    19    20   am
     7    20    21    2
     8    20    23    1
     9    23    24   ar
    10    24    25   ar
    11    25    26   ar
    12    26    30    1
    13    30    31    3
    14    26    27   ar
    15    27    28   ar
    16    28    29    1
    17     3     4   ar
    18     4     5   ar
    19     5     6   ar
    20     6     7    1
    21     9    10    1
    22    10    11    2
    23    11    12    1
    24    11    13    1
    25    13    14    1
    26    14    15    1
    27    15    16    1
    28    15     9    1
    29     6     1   ar
    30    28    23   ar
    31    19    22    1
    32    12    17    1
    33    12    18    1
@<TRIPOS>MOLECULE
*****
 31 33 0 0 0
SMALL
GASTEIGER

@<TRIPOS>ATOM
      1 C         140.3843  140.6552  166.6465 C.ar    1  UNL1        0.0555
      2 C         140.7210  141.3176  165.3436 C.ar    1  UNL1        0.0168
      3 C         139.7540  141.2551  164.1986 C.ar    1  UNL1        0.0505
      4 C         138.4503  140.5302  164.3566 C.ar    1  UNL1        0.0170
      5 C         138.1136  139.8678  165.6595 C.ar    1  UNL1        0.0307
      6 C         139.0806  139.9303  166.8045 C.ar    1  UNL1        0.1402
      7 F         138.7439  139.2678  168.1076 F       1  UNL1       -0.2044
      8 C         141.8138  139.4540  167.1286 C.3     1  UNL1        0.0638
      9 C         141.3512  140.7176  167.7916 C.3     1  UNL1        0.2513
     10 N         140.5529  141.9595  168.0569 N.2     1  UNL1       -0.0663
     11 C         140.8821  142.8249  169.2369 C.2     1  UNL1        0.3195
     12 N         140.0837  144.0668  169.5022 N.pl3   1  UNL1       -0.2480
     13 C         142.0098  142.4485  170.1517 C.3     1  UNL1        0.2611
     14 O         142.8081  141.2067  169.8865 O.3     1  UNL1       -0.3108
     15 C         142.4789  140.3412  168.7064 C.3     1  UNL1        0.3281
     16 F         143.2772  139.0993  168.4411 F       1  UNL1       -0.1989
     17 H         139.3436  144.3139  168.9018 H       1  UNL1        0.2882
     18 H         140.2998  144.6349  170.2767 H       1  UNL1        0.2882
     19 N         140.0907  141.9176  162.8955 N.am    1  UNL1       -0.2791
     20 C         139.2225  143.0218  162.3692 C.2     1  UNL1        0.2681
     21 O         138.0176  143.4635  163.1459 O.2     1  UNL1       -0.2681
     22 H         140.8815  141.6277  162.3858 H       1  UNL1        0.1552
     23 C         139.5591  143.6842  161.0662 C.ar    1  UNL1        0.1453
     24 N         139.0818  143.0868  159.7758 N.ar    1  UNL1       -0.2377
     25 C         139.4185  143.7493  158.4727 C.ar    1  UNL1        0.1093
     26 C         140.2324  145.0092  158.4602 C.ar    1  UNL1        0.0884
     27 C         140.7097  145.6066  159.7507 C.ar    1  UNL1        0.0249
     28 C         140.3731  144.9442  161.0536 C.ar    1  UNL1        0.0804
     29 CL        140.8503  145.5416  162.3441 Cl      1  UNL1       -0.0805
     30 C         140.5690  145.6716  157.1572 C.1     1  UNL1        0.1020
     31 N         140.9057  146.3342  155.8542 N.1     1  UNL1       -0.1908
@<TRIPOS>BOND
     1     9     8    1
     2     9     1    1
     3     1     2   ar
     4     2     3   ar
     5     3    19    1
     6    19    20   am
     7    20    21    2
     8    20    23    1
     9    23    24   ar
    10    24    25   ar
    11    25    26   ar
    12    26    30    1
    13    30    31    3
    14    26    27   ar
    15    27    28   ar
    16    28    29    1
    17     3     4   ar
    18     4     5   ar
    19     5     6   ar
    20     6     7    1
    21     9    10    1
    22    10    11    2
    23    11    12    1
    24    11    13    1
    25    13    14    1
    26    14    15    1
    27    15    16    1
    28    15     9    1
    29     6     1   ar
    30    28    23   ar
    31    19    22    1
    32    12    17    1
    33    12    18    1
@<TRIPOS>MOLECULE
*****
 31 33 0 0 0
SMALL
GASTEIGER

@<TRIPOS>ATOM
      1 C         140.4926  140.2957  168.0260 C.ar    1  UNL1        0.0555
      2 C         140.9714  140.2779  166.6046 C.ar    1  UNL1        0.0168
      3 C         140.0665  139.7851  165.5146 C.ar    1  UNL1        0.0505
      4 C         138.6828  139.3101  165.8460 C.ar    1  UNL1        0.0170
      5 C         138.2041  139.3279  167.2674 C.ar    1  UNL1        0.0307
      6 C         139.1090  139.8207  168.3574 C.ar    1  UNL1        0.1402
      7 F         138.6302  139.8385  169.7789 F       1  UNL1       -0.2044
      8 C         141.9219  139.3926  168.9535 C.3     1  UNL1        0.0638
      9 C         141.3976  140.7886  169.1161 C.3     1  UNL1        0.2513
     10 N         140.5590  142.0133  168.9002 N.2     1  UNL1       -0.0663
     11 C         140.8074  143.2461  169.7178 C.2     1  UNL1        0.3195
     12 N         139.9688  144.4709  169.5018 N.pl3   1  UNL1       -0.2480
     13 C         141.8944  143.2541  170.7514 C.3     1  UNL1        0.2611
     14 O         142.7330  142.0293  170.9674 O.3     1  UNL1       -0.3108
     15 C         142.4846  140.7965  170.1498 C.3     1  UNL1        0.3281
     16 F         143.3231  139.5717  170.3657 F       1  UNL1       -0.1989
     17 H         139.2553  144.4656  168.8234 H       1  UNL1        0.2882
     18 H         140.1318  145.2800  170.0384 H       1  UNL1        0.2882
     19 N         140.5452  139.7673  164.0931 N.am    1  UNL1       -0.2791
     20 C         141.1778  138.5292  163.5302 C.2     1  UNL1        0.2681
     21 O         141.3316  137.3088  164.3888 O.2     1  UNL1       -0.2681
     22 H         140.4443  140.5683  163.5296 H       1  UNL1        0.1552
     23 C         141.6565  138.5113  162.1088 C.ar    1  UNL1        0.1453
     24 N         140.6730  138.3473  160.9881 N.ar    1  UNL1       -0.2377
     25 C         141.1518  138.3294  159.5667 C.ar    1  UNL1        0.1093
     26 C         142.6140  138.4756  159.2659 C.ar    1  UNL1        0.0884
     27 C         143.5975  138.6397  160.3866 C.ar    1  UNL1        0.0249
     28 C         143.1188  138.6575  161.8080 C.ar    1  UNL1        0.0804
     29 CL        144.1023  138.8215  162.9286 Cl      1  UNL1       -0.0805
     30 C         143.0928  138.4578  157.8445 C.1     1  UNL1        0.1020
     31 N         143.5716  138.4399  156.4230 N.1     1  UNL1       -0.1908
@<TRIPOS>BOND
     1     9     8    1
     2     9     1    1
     3     1     2   ar
     4     2     3   ar
     5     3    19    1
     6    19    20   am
     7    20    21    2
     8    20    23    1
     9    23    24   ar
    10    24    25   ar
    11    25    26   ar
    12    26    30    1
    13    30    31    3
    14    26    27   ar
    15    27    28   ar
    16    28    29    1
    17     3     4   ar
    18     4     5   ar
    19     5     6   ar
    20     6     7    1
    21     9    10    1
    22    10    11    2
    23    11    12    1
    24    11    13    1
    25    13    14    1
    26    14    15    1
    27    15    16    1
    28    15     9    1
    29     6     1   ar
    30    28    23   ar
    31    19    22    1
    32    12    17    1
    33    12    18    1
