@<TRIPOS>MOLECULE
*****
 31 33 0 0 0
SMALL
GASTEIGER

@<TRIPOS>ATOM
      1 C         143.3488  142.8944  162.2543 C.ar    1  UNL1        0.2331
      2 C         144.3701  143.0717  163.3385 C.ar    1  UNL1        0.0673
      3 C         145.3107  141.9522  163.6732 C.ar    1  UNL1        0.0116
      4 C         145.2301  140.6554  162.9236 C.ar    1  UNL1        0.0673
      5 C         144.2088  140.4781  161.8394 C.ar    1  UNL1        0.2331
      6 N         143.2682  141.5976  161.5047 N.ar    1  UNL1       -0.1663
      7 C         142.2469  141.4203  160.4204 C.3     1  UNL1        0.4077
      8 C         142.4082  144.0138  161.9196 C.3     1  UNL1        0.2398
      9 O         142.2444  145.1647  162.8677 O.3     1  UNL1       -0.3290
     10 C         141.1917  145.1132  163.9349 C.3     1  UNL1        0.2187
     11 C         140.0632  142.4725  164.8027 C.1     1  UNL1       -0.0619
     12 C         140.6274  143.7929  164.3688 C.1     1  UNL1       -0.0539
     13 C         137.8060  137.1912  166.5383 C.3     1  UNL1        0.0310
     14 C         138.3703  138.5115  166.1044 C.ar    1  UNL1       -0.0218
     15 C         138.5016  138.8275  164.6440 C.ar    1  UNL1       -0.0036
     16 C         139.0658  140.1479  164.2101 C.ar    1  UNL1        0.0079
     17 C         139.4989  141.1522  165.2366 C.ar    1  UNL1        0.0417
     18 C         139.3676  140.8362  166.6970 C.ar    1  UNL1        0.0079
     19 C         138.8033  139.5158  167.1309 C.ar    1  UNL1       -0.0036
     20 C         144.1282  139.1814  161.0898 C.3     1  UNL1        0.2398
     21 O         143.7003  137.9306  161.7988 O.3     1  UNL1       -0.3290
     22 C         142.5192  137.9591  162.7230 C.3     1  UNL1        0.2187
     23 C         142.5991  138.7096  164.0192 C.1     1  UNL1       -0.0539
     24 C         142.6790  139.4601  165.3155 C.1     1  UNL1       -0.0619
     25 C         142.7589  140.2106  166.6118 C.ar    1  UNL1        0.0417
     26 C         142.5776  139.4841  167.9115 C.ar    1  UNL1        0.0079
     27 C         142.6575  140.2347  169.2077 C.ar    1  UNL1       -0.0036
     28 C         142.9187  141.7117  169.2042 C.ar    1  UNL1       -0.0218
     29 C         142.9986  142.4623  170.5006 C.3     1  UNL1        0.0310
     30 C         143.1000  142.4383  167.9046 C.ar    1  UNL1       -0.0036
     31 C         143.0201  141.6877  166.6083 C.ar    1  UNL1        0.0079
@<TRIPOS>UNITY_ATOM_ATTR
6 1
charge 1
@<TRIPOS>BOND
     1    13    14    1
     2    14    15   ar
     3    15    16   ar
     4    16    17   ar
     5    17    11    1
     6    11    12    3
     7    12    10    1
     8    10     9    1
     9     9     8    1
    10     8     1    1
    11     1     2   ar
    12     2     3   ar
    13     3     4   ar
    14     4     5   ar
    15     5    20    1
    16    20    21    1
    17    21    22    1
    18    22    23    1
    19    23    24    3
    20    24    25    1
    21    25    26   ar
    22    26    27   ar
    23    27    28   ar
    24    28    29    1
    25    28    30   ar
    26    30    31   ar
    27     5     6   ar
    28     6     7    1
    29    17    18   ar
    30    18    19   ar
    31    19    14   ar
    32     6     1   ar
    33    31    25   ar
@<TRIPOS>MOLECULE
*****
 31 33 0 0 0
SMALL
GASTEIGER

@<TRIPOS>ATOM
      1 C         143.4432  143.3016  161.2825 C.ar    1  UNL1        0.2331
      2 C         144.3152  143.0353  162.4735 C.ar    1  UNL1        0.0673
      3 C         143.9822  143.6519  163.7998 C.ar    1  UNL1        0.0116
      4 C         142.7771  144.5349  163.9349 C.ar    1  UNL1        0.0673
      5 C         141.9051  144.8012  162.7438 C.ar    1  UNL1        0.2331
      6 N         142.2382  144.1846  161.4176 N.ar    1  UNL1       -0.1663
      7 C         141.3662  144.4509  160.2265 C.3     1  UNL1        0.4077
      8 C         143.7762  142.6850  159.9562 C.3     1  UNL1        0.2398
      9 O         144.0768  141.2182  159.8654 O.3     1  UNL1       -0.3290
     10 C         142.9545  140.2260  159.7893 C.3     1  UNL1        0.2187
     11 C         141.2311  139.7234  162.1930 C.1     1  UNL1       -0.0619
     12 C         142.0928  139.9747  160.9912 C.1     1  UNL1       -0.0539
     13 C         137.7845  138.7182  167.0003 C.3     1  UNL1        0.0310
     14 C         138.6462  138.9695  165.7985 C.ar    1  UNL1       -0.0218
     15 C         139.8988  138.1703  165.5934 C.ar    1  UNL1       -0.0036
     16 C         140.7605  138.4216  164.3915 C.ar    1  UNL1        0.0079
     17 C         140.3695  139.4721  163.3948 C.ar    1  UNL1        0.0417
     18 C         139.1169  140.2713  163.5999 C.ar    1  UNL1        0.0079
     19 C         138.2552  140.0200  164.8018 C.ar    1  UNL1       -0.0036
     20 C         140.7001  145.6842  162.8789 C.3     1  UNL1        0.2398
     21 O         139.3425  145.0760  163.0717 O.3     1  UNL1       -0.3290
     22 C         138.8151  144.8423  164.4563 C.3     1  UNL1        0.2187
     23 C         139.4540  143.8106  165.3380 C.1     1  UNL1       -0.0539
     24 C         140.0929  142.7788  166.2196 C.1     1  UNL1       -0.0619
     25 C         140.7318  141.7471  167.1013 C.ar    1  UNL1        0.0417
     26 C         142.0139  141.0916  166.6811 C.ar    1  UNL1        0.0079
     27 C         142.6528  140.0599  167.5628 C.ar    1  UNL1       -0.0036
     28 C         142.0096  139.6837  168.8647 C.ar    1  UNL1       -0.0218
     29 C         142.6486  138.6520  169.7464 C.3     1  UNL1        0.0310
     30 C         140.7276  140.3393  169.2849 C.ar    1  UNL1       -0.0036
     31 C         140.0887  141.3710  168.4032 C.ar    1  UNL1        0.0079
@<TRIPOS>UNITY_ATOM_ATTR
6 1
charge 1
@<TRIPOS>BOND
     1    13    14    1
     2    14    15   ar
     3    15    16   ar
     4    16    17   ar
     5    17    11    1
     6    11    12    3
     7    12    10    1
     8    10     9    1
     9     9     8    1
    10     8     1    1
    11     1     2   ar
    12     2     3   ar
    13     3     4   ar
    14     4     5   ar
    15     5    20    1
    16    20    21    1
    17    21    22    1
    18    22    23    1
    19    23    24    3
    20    24    25    1
    21    25    26   ar
    22    26    27   ar
    23    27    28   ar
    24    28    29    1
    25    28    30   ar
    26    30    31   ar
    27     5     6   ar
    28     6     7    1
    29    17    18   ar
    30    18    19   ar
    31    19    14   ar
    32     6     1   ar
    33    31    25   ar
@<TRIPOS>MOLECULE
*****
 31 33 0 0 0
SMALL
GASTEIGER

@<TRIPOS>ATOM
      1 C         141.7176  144.7861  162.1698 C.ar    1  UNL1        0.2331
      2 C         142.5901  144.9017  163.3844 C.ar    1  UNL1        0.0673
      3 C         143.9454  144.2590  163.3983 C.ar    1  UNL1        0.0116
      4 C         144.4281  143.5005  162.1976 C.ar    1  UNL1        0.0673
      5 C         143.5555  143.3849  160.9829 C.ar    1  UNL1        0.2331
      6 N         142.2003  144.0276  160.9690 N.ar    1  UNL1       -0.1663
      7 C         141.3278  143.9120  159.7544 C.3     1  UNL1        0.4077
      8 C         140.3623  145.4288  162.1558 C.3     1  UNL1        0.2398
      9 O         139.2074  144.7587  162.8391 O.3     1  UNL1       -0.3290
     10 C         139.0270  144.9021  164.3213 C.3     1  UNL1        0.2187
     11 C         140.1854  142.8509  166.1789 C.1     1  UNL1       -0.0619
     12 C         139.6062  143.8765  165.2501 C.1     1  UNL1       -0.0539
     13 C         142.5023  138.7486  169.8941 C.3     1  UNL1        0.0310
     14 C         141.9231  139.7742  168.9653 C.ar    1  UNL1       -0.0218
     15 C         142.5715  140.0354  167.6381 C.ar    1  UNL1       -0.0036
     16 C         141.9922  141.0610  166.7093 C.ar    1  UNL1        0.0079
     17 C         140.7646  141.8253  167.1077 C.ar    1  UNL1        0.0417
     18 C         140.1163  141.5641  168.4348 C.ar    1  UNL1        0.0079
     19 C         140.6955  140.5385  169.3636 C.ar    1  UNL1       -0.0036
     20 C         144.0383  142.6264  159.7822 C.3     1  UNL1        0.2398
     21 O         143.8977  141.1338  159.7315 O.3     1  UNL1       -0.3290
     22 C         142.5366  140.5117  159.6303 C.3     1  UNL1        0.2187
     23 C         141.7477  140.2270  160.8739 C.1     1  UNL1       -0.0539
     24 C         140.9589  139.9424  162.1175 C.1     1  UNL1       -0.0619
     25 C         140.1699  139.6578  163.3612 C.ar    1  UNL1        0.0417
     26 C         140.5968  138.5551  164.2842 C.ar    1  UNL1        0.0079
     27 C         139.8079  138.2706  165.5278 C.ar    1  UNL1       -0.0036
     28 C         138.5921  139.0886  165.8484 C.ar    1  UNL1       -0.0218
     29 C         137.8032  138.8040  167.0921 C.3     1  UNL1        0.0310
     30 C         138.1653  140.1912  164.9254 C.ar    1  UNL1       -0.0036
     31 C         138.9542  140.4758  163.6818 C.ar    1  UNL1        0.0079
@<TRIPOS>UNITY_ATOM_ATTR
6 1
charge 1
@<TRIPOS>BOND
     1    13    14    1
     2    14    15   ar
     3    15    16   ar
     4    16    17   ar
     5    17    11    1
     6    11    12    3
     7    12    10    1
     8    10     9    1
     9     9     8    1
    10     8     1    1
    11     1     2   ar
    12     2     3   ar
    13     3     4   ar
    14     4     5   ar
    15     5    20    1
    16    20    21    1
    17    21    22    1
    18    22    23    1
    19    23    24    3
    20    24    25    1
    21    25    26   ar
    22    26    27   ar
    23    27    28   ar
    24    28    29    1
    25    28    30   ar
    26    30    31   ar
    27     5     6   ar
    28     6     7    1
    29    17    18   ar
    30    18    19   ar
    31    19    14   ar
    32     6     1   ar
    33    31    25   ar
@<TRIPOS>MOLECULE
*****
 31 33 0 0 0
SMALL
GASTEIGER

@<TRIPOS>ATOM
      1 C         143.8154  143.6163  162.1525 C.ar    1  UNL1        0.2331
      2 C         144.0498  144.1943  163.5166 C.ar    1  UNL1        0.0673
      3 C         143.0393  145.1237  164.1211 C.ar    1  UNL1        0.0116
      4 C         141.7946  145.4751  163.3614 C.ar    1  UNL1        0.0673
      5 C         141.5603  144.8970  161.9972 C.ar    1  UNL1        0.2331
      6 N         142.5707  143.9676  161.3927 N.ar    1  UNL1       -0.1663
      7 C         142.3364  143.3896  160.0285 C.3     1  UNL1        0.4077
      8 C         144.8258  142.6869  161.5480 C.3     1  UNL1        0.2398
      9 O         145.6325  141.7801  162.4295 O.3     1  UNL1       -0.3290
     10 C         145.0001  140.5586  163.0278 C.3     1  UNL1        0.2187
     11 C         143.1315  140.8262  165.3595 C.1     1  UNL1       -0.0619
     12 C         144.0658  140.6924  164.1937 C.1     1  UNL1       -0.0539
     13 C         139.3942  141.3614  170.0228 C.3     1  UNL1        0.0310
     14 C         140.3285  141.2276  168.8570 C.ar    1  UNL1       -0.0218
     15 C         141.1245  139.9694  168.6743 C.ar    1  UNL1       -0.0036
     16 C         142.0588  139.8356  167.5084 C.ar    1  UNL1        0.0079
     17 C         142.1972  140.9600  166.5253 C.ar    1  UNL1        0.0417
     18 C         141.4012  142.2181  166.7080 C.ar    1  UNL1        0.0079
     19 C         140.4669  142.3519  167.8738 C.ar    1  UNL1       -0.0036
     20 C         140.3156  145.2483  161.2374 C.3     1  UNL1        0.2398
     21 O         139.1213  145.7915  161.9646 O.3     1  UNL1       -0.3290
     22 C         138.2329  144.8671  162.7433 C.3     1  UNL1        0.2187
     23 C         138.6940  143.4758  163.0623 C.1     1  UNL1       -0.0539
     24 C         139.1550  142.0846  163.3813 C.1     1  UNL1       -0.0619
     25 C         139.6161  140.6933  163.7004 C.ar    1  UNL1        0.0417
     26 C         140.6409  140.0252  162.8324 C.ar    1  UNL1        0.0079
     27 C         141.1019  138.6340  163.1515 C.ar    1  UNL1       -0.0036
     28 C         140.5381  137.9108  164.3386 C.ar    1  UNL1       -0.0218
     29 C         140.9992  136.5195  164.6577 C.3     1  UNL1        0.0310
     30 C         139.5133  138.5788  165.2065 C.ar    1  UNL1       -0.0036
     31 C         139.0523  139.9701  164.8874 C.ar    1  UNL1        0.0079
@<TRIPOS>UNITY_ATOM_ATTR
6 1
charge 1
@<TRIPOS>BOND
     1    13    14    1
     2    14    15   ar
     3    15    16   ar
     4    16    17   ar
     5    17    11    1
     6    11    12    3
     7    12    10    1
     8    10     9    1
     9     9     8    1
    10     8     1    1
    11     1     2   ar
    12     2     3   ar
    13     3     4   ar
    14     4     5   ar
    15     5    20    1
    16    20    21    1
    17    21    22    1
    18    22    23    1
    19    23    24    3
    20    24    25    1
    21    25    26   ar
    22    26    27   ar
    23    27    28   ar
    24    28    29    1
    25    28    30   ar
    26    30    31   ar
    27     5     6   ar
    28     6     7    1
    29    17    18   ar
    30    18    19   ar
    31    19    14   ar
    32     6     1   ar
    33    31    25   ar
@<TRIPOS>MOLECULE
*****
 31 33 0 0 0
SMALL
GASTEIGER

@<TRIPOS>ATOM
      1 C         138.2191  142.0257  162.1563 C.ar    1  UNL1        0.2331
      2 C         137.6467  142.7205  163.3561 C.ar    1  UNL1        0.0673
      3 C         138.2529  144.0047  163.8393 C.ar    1  UNL1        0.0116
      4 C         139.4315  144.5940  163.1227 C.ar    1  UNL1        0.0673
      5 C         140.0040  143.8991  161.9229 C.ar    1  UNL1        0.2331
      6 N         139.3978  142.6150  161.4397 N.ar    1  UNL1       -0.1663
      7 C         139.9702  141.9201  160.2399 C.3     1  UNL1        0.4077
      8 C         137.6129  140.7415  161.6730 C.3     1  UNL1        0.2398
      9 O         138.4420  139.4924  161.6242 O.3     1  UNL1       -0.3290
     10 C         138.6118  138.6562  162.8579 C.3     1  UNL1        0.2187
     11 C         139.1001  139.9745  165.5081 C.1     1  UNL1       -0.0619
     12 C         138.8559  139.3154  164.1830 C.1     1  UNL1       -0.0539
     13 C         140.0766  142.6111  170.8086 C.3     1  UNL1        0.0310
     14 C         139.8325  141.9519  169.4834 C.ar    1  UNL1       -0.0218
     15 C         140.0397  142.7222  168.2131 C.ar    1  UNL1       -0.0036
     16 C         139.7955  142.0631  166.8880 C.ar    1  UNL1        0.0079
     17 C         139.3442  140.6336  166.8332 C.ar    1  UNL1        0.0417
     18 C         139.1370  139.8634  168.1035 C.ar    1  UNL1        0.0079
     19 C         139.3811  140.5225  169.4286 C.ar    1  UNL1       -0.0036
     20 C         141.1826  144.4884  161.2063 C.3     1  UNL1        0.2398
     21 O         142.5290  144.5086  161.8674 O.3     1  UNL1       -0.3290
     22 C         143.2307  143.2201  162.1793 C.3     1  UNL1        0.2187
     23 C         143.1874  142.6600  163.5701 C.1     1  UNL1       -0.0539
     24 C         143.1441  142.0999  164.9609 C.1     1  UNL1       -0.0619
     25 C         143.1008  141.5399  166.3518 C.ar    1  UNL1        0.0417
     26 C         142.7821  140.0900  166.5669 C.ar    1  UNL1        0.0079
     27 C         142.7389  139.5300  167.9578 C.ar    1  UNL1       -0.0036
     28 C         143.0143  140.4199  169.1335 C.ar    1  UNL1       -0.0218
     29 C         142.9711  139.8598  170.5244 C.3     1  UNL1        0.0310
     30 C         143.3331  141.8697  168.9184 C.ar    1  UNL1       -0.0036
     31 C         143.3763  142.4297  167.5275 C.ar    1  UNL1        0.0079
@<TRIPOS>UNITY_ATOM_ATTR
6 1
charge 1
@<TRIPOS>BOND
     1    13    14    1
     2    14    15   ar
     3    15    16   ar
     4    16    17   ar
     5    17    11    1
     6    11    12    3
     7    12    10    1
     8    10     9    1
     9     9     8    1
    10     8     1    1
    11     1     2   ar
    12     2     3   ar
    13     3     4   ar
    14     4     5   ar
    15     5    20    1
    16    20    21    1
    17    21    22    1
    18    22    23    1
    19    23    24    3
    20    24    25    1
    21    25    26   ar
    22    26    27   ar
    23    27    28   ar
    24    28    29    1
    25    28    30   ar
    26    30    31   ar
    27     5     6   ar
    28     6     7    1
    29    17    18   ar
    30    18    19   ar
    31    19    14   ar
    32     6     1   ar
    33    31    25   ar
@<TRIPOS>MOLECULE
*****
 31 33 0 0 0
SMALL
GASTEIGER

@<TRIPOS>ATOM
      1 C         143.7497  143.1586  162.1453 C.ar    1  UNL1        0.2331
      2 C         143.9872  144.1961  163.2023 C.ar    1  UNL1        0.0673
      3 C         142.9296  145.2167  163.5024 C.ar    1  UNL1        0.0116
      4 C         141.6347  145.1998  162.7455 C.ar    1  UNL1        0.0673
      5 C         141.3973  144.1622  161.6886 C.ar    1  UNL1        0.2331
      6 N         142.4548  143.1416  161.3885 N.ar    1  UNL1       -0.1663
      7 C         142.2174  142.1041  160.3315 C.3     1  UNL1        0.4077
      8 C         144.8073  142.1380  161.8452 C.3     1  UNL1        0.2398
      9 O         145.0028  140.9682  162.7637 O.3     1  UNL1       -0.3290
     10 C         144.2386  139.6982  162.5338 C.3     1  UNL1        0.2187
     11 C         141.8067  139.0916  164.1825 C.1     1  UNL1       -0.0619
     12 C         143.0226  139.3949  163.3581 C.1     1  UNL1       -0.0539
     13 C         136.9430  137.8783  167.4798 C.3     1  UNL1        0.0310
     14 C         138.1590  138.1816  166.6555 C.ar    1  UNL1       -0.0218
     15 C         139.0762  139.2992  167.0550 C.ar    1  UNL1       -0.0036
     16 C         140.2922  139.6025  166.2306 C.ar    1  UNL1        0.0079
     17 C         140.5908  138.7883  165.0068 C.ar    1  UNL1        0.0417
     18 C         139.6735  137.6707  164.6073 C.ar    1  UNL1        0.0079
     19 C         138.4576  137.3674  165.4317 C.ar    1  UNL1       -0.0036
     20 C         140.1023  144.1452  160.9317 C.3     1  UNL1        0.2398
     21 O         138.8112  144.4083  161.6485 O.3     1  UNL1       -0.3290
     22 C         138.3568  143.4837  162.7388 C.3     1  UNL1        0.2187
     23 C         139.2269  143.2546  163.9390 C.1     1  UNL1       -0.0539
     24 C         140.0969  143.0255  165.1392 C.1     1  UNL1       -0.0619
     25 C         140.9671  142.7964  166.3394 C.ar    1  UNL1        0.0417
     26 C         140.3867  142.9051  167.7182 C.ar    1  UNL1        0.0079
     27 C         141.2568  142.6759  168.9184 C.ar    1  UNL1       -0.0036
     28 C         142.7073  142.3382  168.7396 C.ar    1  UNL1       -0.0218
     29 C         143.5774  142.1090  169.9398 C.3     1  UNL1        0.0310
     30 C         143.2877  142.2295  167.3608 C.ar    1  UNL1       -0.0036
     31 C         142.4176  142.4586  166.1606 C.ar    1  UNL1        0.0079
@<TRIPOS>UNITY_ATOM_ATTR
6 1
charge 1
@<TRIPOS>BOND
     1    13    14    1
     2    14    15   ar
     3    15    16   ar
     4    16    17   ar
     5    17    11    1
     6    11    12    3
     7    12    10    1
     8    10     9    1
     9     9     8    1
    10     8     1    1
    11     1     2   ar
    12     2     3   ar
    13     3     4   ar
    14     4     5   ar
    15     5    20    1
    16    20    21    1
    17    21    22    1
    18    22    23    1
    19    23    24    3
    20    24    25    1
    21    25    26   ar
    22    26    27   ar
    23    27    28   ar
    24    28    29    1
    25    28    30   ar
    26    30    31   ar
    27     5     6   ar
    28     6     7    1
    29    17    18   ar
    30    18    19   ar
    31    19    14   ar
    32     6     1   ar
    33    31    25   ar
@<TRIPOS>MOLECULE
*****
 31 33 0 0 0
SMALL
GASTEIGER

@<TRIPOS>ATOM
      1 C         140.7517  144.2334  161.1363 C.ar    1  UNL1        0.2331
      2 C         140.2700  144.8651  162.4086 C.ar    1  UNL1        0.0673
      3 C         141.2290  145.1047  163.5369 C.ar    1  UNL1        0.0116
      4 C         142.6697  144.7126  163.3927 C.ar    1  UNL1        0.0673
      5 C         143.1513  144.0809  162.1203 C.ar    1  UNL1        0.2331
      6 N         142.1923  143.8413  160.9921 N.ar    1  UNL1       -0.1663
      7 C         142.6739  143.2095  159.7197 C.3     1  UNL1        0.4077
      8 C         139.7926  143.9937  160.0080 C.3     1  UNL1        0.2398
      9 O         138.5347  143.2121  160.2461 O.3     1  UNL1       -0.3290
     10 C         138.5927  141.7188  160.3749 C.3     1  UNL1        0.2187
     11 C         140.3351  140.4602  162.4677 C.1     1  UNL1       -0.0619
     12 C         139.4639  141.0895  161.4213 C.1     1  UNL1       -0.0539
     13 C         143.8200  137.9429  166.6533 C.3     1  UNL1        0.0310
     14 C         142.9487  138.5722  165.6069 C.ar    1  UNL1       -0.0218
     15 C         143.4518  138.7195  164.2015 C.ar    1  UNL1       -0.0036
     16 C         142.5806  139.3488  163.1551 C.ar    1  UNL1        0.0079
     17 C         141.2063  139.8309  163.5141 C.ar    1  UNL1        0.0417
     18 C         140.7033  139.6836  164.9195 C.ar    1  UNL1        0.0079
     19 C         141.5745  139.0543  165.9659 C.ar    1  UNL1       -0.0036
     20 C         144.5920  143.6888  161.9761 C.3     1  UNL1        0.2398
     21 O         145.0123  142.2712  162.2289 O.3     1  UNL1       -0.3290
     22 C         145.4378  141.8490  163.6040 C.3     1  UNL1        0.2187
     23 C         144.5058  142.0283  164.7655 C.1     1  UNL1       -0.0539
     24 C         143.5739  142.2077  165.9271 C.1     1  UNL1       -0.0619
     25 C         142.6419  142.3870  167.0887 C.ar    1  UNL1        0.0417
     26 C         141.1929  142.6910  166.8477 C.ar    1  UNL1        0.0079
     27 C         140.2610  142.8703  168.0093 C.ar    1  UNL1       -0.0036
     28 C         140.7780  142.7457  169.4118 C.ar    1  UNL1       -0.0218
     29 C         139.8460  142.9250  170.5734 C.3     1  UNL1        0.0310
     30 C         142.2270  142.4417  169.6528 C.ar    1  UNL1       -0.0036
     31 C         143.1589  142.2624  168.4913 C.ar    1  UNL1        0.0079
@<TRIPOS>UNITY_ATOM_ATTR
6 1
charge 1
@<TRIPOS>BOND
     1    13    14    1
     2    14    15   ar
     3    15    16   ar
     4    16    17   ar
     5    17    11    1
     6    11    12    3
     7    12    10    1
     8    10     9    1
     9     9     8    1
    10     8     1    1
    11     1     2   ar
    12     2     3   ar
    13     3     4   ar
    14     4     5   ar
    15     5    20    1
    16    20    21    1
    17    21    22    1
    18    22    23    1
    19    23    24    3
    20    24    25    1
    21    25    26   ar
    22    26    27   ar
    23    27    28   ar
    24    28    29    1
    25    28    30   ar
    26    30    31   ar
    27     5     6   ar
    28     6     7    1
    29    17    18   ar
    30    18    19   ar
    31    19    14   ar
    32     6     1   ar
    33    31    25   ar
@<TRIPOS>MOLECULE
*****
 31 33 0 0 0
SMALL
GASTEIGER

@<TRIPOS>ATOM
      1 C         143.4033  139.2140  161.7601 C.ar    1  UNL1        0.2331
      2 C         144.3073  139.4105  162.9409 C.ar    1  UNL1        0.0673
      3 C         145.0052  140.7232  163.1409 C.ar    1  UNL1        0.0116
      4 C         144.7991  141.8393  162.1601 C.ar    1  UNL1        0.0673
      5 C         143.8951  141.6427  160.9793 C.ar    1  UNL1        0.2331
      6 N         143.1972  140.3301  160.7794 N.ar    1  UNL1       -0.1663
      7 C         142.2932  140.1335  159.5986 C.3     1  UNL1        0.4077
      8 C         142.7054  137.9014  161.5601 C.3     1  UNL1        0.2398
      9 O         141.4287  137.6116  162.2924 O.3     1  UNL1       -0.3290
     10 C         141.4713  137.1270  163.7112 C.3     1  UNL1        0.2187
     11 C         142.1576  139.0302  165.9264 C.1     1  UNL1       -0.0619
     12 C         141.8145  138.0786  164.8188 C.1     1  UNL1       -0.0539
     13 C         143.5302  142.8365  170.3567 C.3     1  UNL1        0.0310
     14 C         143.1871  141.8850  169.2491 C.ar    1  UNL1       -0.0218
     15 C         142.8248  140.4643  169.5662 C.ar    1  UNL1       -0.0036
     16 C         142.4816  139.5128  168.4586 C.ar    1  UNL1        0.0079
     17 C         142.5008  139.9818  167.0340 C.ar    1  UNL1        0.0417
     18 C         142.8631  141.4024  166.7169 C.ar    1  UNL1        0.0079
     19 C         143.2062  142.3540  167.8245 C.ar    1  UNL1       -0.0036
     20 C         143.6890  142.7588  159.9986 C.3     1  UNL1        0.2398
     21 O         142.9485  143.9953  160.4142 O.3     1  UNL1       -0.3290
     22 C         141.4591  143.9547  160.5882 C.3     1  UNL1        0.2187
     23 C         140.8496  143.0624  161.6285 C.1     1  UNL1       -0.0539
     24 C         140.2401  142.1701  162.6687 C.1     1  UNL1       -0.0619
     25 C         139.6305  141.2777  163.7091 C.ar    1  UNL1        0.0417
     26 C         139.6622  141.6796  165.1538 C.ar    1  UNL1        0.0079
     27 C         139.0526  140.7873  166.1940 C.ar    1  UNL1       -0.0036
     28 C         138.4114  139.4930  165.7895 C.ar    1  UNL1       -0.0218
     29 C         137.8018  138.6006  166.8298 C.3     1  UNL1        0.0310
     30 C         138.3797  139.0911  164.3447 C.ar    1  UNL1       -0.0036
     31 C         138.9893  139.9834  163.3045 C.ar    1  UNL1        0.0079
@<TRIPOS>UNITY_ATOM_ATTR
6 1
charge 1
@<TRIPOS>BOND
     1    13    14    1
     2    14    15   ar
     3    15    16   ar
     4    16    17   ar
     5    17    11    1
     6    11    12    3
     7    12    10    1
     8    10     9    1
     9     9     8    1
    10     8     1    1
    11     1     2   ar
    12     2     3   ar
    13     3     4   ar
    14     4     5   ar
    15     5    20    1
    16    20    21    1
    17    21    22    1
    18    22    23    1
    19    23    24    3
    20    24    25    1
    21    25    26   ar
    22    26    27   ar
    23    27    28   ar
    24    28    29    1
    25    28    30   ar
    26    30    31   ar
    27     5     6   ar
    28     6     7    1
    29    17    18   ar
    30    18    19   ar
    31    19    14   ar
    32     6     1   ar
    33    31    25   ar
@<TRIPOS>MOLECULE
*****
 31 33 0 0 0
SMALL
GASTEIGER

@<TRIPOS>ATOM
      1 C         143.6144  140.1543  160.7405 C.ar    1  UNL1        0.2331
      2 C         143.2091  138.8600  161.3812 C.ar    1  UNL1        0.0673
      3 C         143.6399  138.5504  162.7843 C.ar    1  UNL1        0.0116
      4 C         144.4760  139.5352  163.5466 C.ar    1  UNL1        0.0673
      5 C         144.8813  140.8295  162.9058 C.ar    1  UNL1        0.2331
      6 N         144.4505  141.1390  161.5028 N.ar    1  UNL1       -0.1663
      7 C         144.8559  142.4333  160.8620 C.3     1  UNL1        0.4077
      8 C         143.1836  140.4639  159.3373 C.3     1  UNL1        0.2398
      9 O         142.0368  139.7173  158.7229 O.3     1  UNL1       -0.3290
     10 C         140.6431  140.2606  158.8331 C.3     1  UNL1        0.2187
     11 C         139.8510  141.8843  161.2281 C.1     1  UNL1       -0.0619
     12 C         140.2470  141.0724  160.0306 C.1     1  UNL1       -0.0539
     13 C         138.2667  145.1316  166.0182 C.3     1  UNL1        0.0310
     14 C         138.6628  144.3198  164.8207 C.ar    1  UNL1       -0.0218
     15 C         139.8303  144.7438  163.9799 C.ar    1  UNL1       -0.0036
     16 C         140.2264  143.9320  162.7824 C.ar    1  UNL1        0.0079
     17 C         139.4549  142.6961  162.4256 C.ar    1  UNL1        0.0417
     18 C         138.2873  142.2720  163.2664 C.ar    1  UNL1        0.0079
     19 C         137.8913  143.0839  164.4639 C.ar    1  UNL1       -0.0036
     20 C         145.7175  141.8142  163.6682 C.3     1  UNL1        0.2398
     21 O         145.0667  142.7677  164.6260 O.3     1  UNL1       -0.3290
     22 C         143.6339  143.1663  164.4303 C.3     1  UNL1        0.2187
     23 C         142.5333  142.2741  164.9227 C.1     1  UNL1       -0.0539
     24 C         141.4326  141.3819  165.4151 C.1     1  UNL1       -0.0619
     25 C         140.3319  140.4896  165.9075 C.ar    1  UNL1        0.0417
     26 C         139.6279  139.5707  164.9536 C.ar    1  UNL1        0.0079
     27 C         138.5273  138.6786  165.4460 C.ar    1  UNL1       -0.0036
     28 C         138.1306  138.7052  166.8923 C.ar    1  UNL1       -0.0218
     29 C         137.0299  137.8130  167.3847 C.3     1  UNL1        0.0310
     30 C         138.8346  139.6241  167.8463 C.ar    1  UNL1       -0.0036
     31 C         139.9352  140.5163  167.3538 C.ar    1  UNL1        0.0079
@<TRIPOS>UNITY_ATOM_ATTR
6 1
charge 1
@<TRIPOS>BOND
     1    13    14    1
     2    14    15   ar
     3    15    16   ar
     4    16    17   ar
     5    17    11    1
     6    11    12    3
     7    12    10    1
     8    10     9    1
     9     9     8    1
    10     8     1    1
    11     1     2   ar
    12     2     3   ar
    13     3     4   ar
    14     4     5   ar
    15     5    20    1
    16    20    21    1
    17    21    22    1
    18    22    23    1
    19    23    24    3
    20    24    25    1
    21    25    26   ar
    22    26    27   ar
    23    27    28   ar
    24    28    29    1
    25    28    30   ar
    26    30    31   ar
    27     5     6   ar
    28     6     7    1
    29    17    18   ar
    30    18    19   ar
    31    19    14   ar
    32     6     1   ar
    33    31    25   ar
