@<TRIPOS>MOLECULE
*****
 36 40 0 0 0
SMALL
GASTEIGER

@<TRIPOS>ATOM
      1 N         139.3201  139.3355  161.0295 N.3     1  UNL1       -0.2690
      2 C         140.3700  140.2239  161.6281 C.3     1  UNL1        0.0724
      3 C         140.4334  140.4135  163.1147 C.3     1  UNL1        0.0175
      4 C         139.4470  139.7146  164.0027 C.3     1  UNL1        0.0060
      5 C         138.3971  138.8262  163.4041 C.3     1  UNL1        0.0175
      6 C         138.3336  138.6366  161.9175 C.3     1  UNL1        0.0724
      7 C         140.4970  140.6031  164.6013 C.3     1  UNL1        0.0217
      8 C         140.5605  140.7927  166.0879 C.3     1  UNL1        0.0939
      9 N         139.5741  140.0938  166.9759 N.am    1  UNL1       -0.2712
     10 C         139.6376  140.2834  168.4626 C.2     1  UNL1        0.3141
     11 O         138.6512  139.5845  169.3506 O.2     1  UNL1       -0.2633
     12 C         138.5242  139.2053  166.3774 C.3     1  UNL1        0.0939
     13 C         138.4606  139.0157  164.8907 C.3     1  UNL1        0.0217
     14 C         140.6875  141.1718  169.0611 C.ar    1  UNL1        0.2906
     15 C         140.3691  142.6040  169.3734 C.ar    1  UNL1        0.0756
     16 C         141.4190  143.4925  169.9720 C.ar    1  UNL1        0.0127
     17 C         142.7874  142.9487  170.2583 C.ar    1  UNL1        0.0772
     18 C         143.1058  141.5166  169.9460 C.ar    1  UNL1        0.3017
     19 N         142.0558  140.6281  169.3474 N.ar    1  UNL1       -0.1531
     20 O         142.3742  139.1960  169.0352 O.co2   1  UNL1       -0.6187
     21 C         139.2565  139.1458  159.5428 C.3     1  UNL1        0.0992
     22 C         142.5542  137.9691  157.6744 C.ar    1  UNL1        0.1452
     23 C         143.0309  139.2682  157.0956 C.ar    1  UNL1        0.0375
     24 C         142.2496  140.5265  157.3326 C.ar    1  UNL1        0.0029
     25 C         140.9915  140.4858  158.1483 C.ar    1  UNL1       -0.0027
     26 C         140.5146  139.1866  158.7271 C.ar    1  UNL1       -0.0031
     27 C         141.2960  137.9283  158.4902 C.ar    1  UNL1        0.0346
     28 O         143.3355  136.7108  157.4374 O.3     1  UNL1       -0.4504
     29 C         143.1052  134.1616  156.9920 C.ar    1  UNL1        0.1730
     30 C         142.4862  133.0264  156.2316 C.ar    1  UNL1        0.0401
     31 C         141.4786  133.3053  155.1559 C.ar    1  UNL1        0.0033
     32 C         141.0900  134.7194  154.8408 C.ar    1  UNL1        0.0033
     33 C         141.7090  135.8546  155.6013 C.ar    1  UNL1        0.0406
     34 C         142.7165  135.5756  156.6769 C.ar    1  UNL1        0.1789
     35 C         144.9718  132.6554  157.9907 C.3     1  UNL1        0.2526
     36 O         144.1128  133.8827  158.0677 O.3     1  UNL1       -0.4684
@<TRIPOS>UNITY_ATOM_ATTR
19 1
charge 1
20 1
charge -1
@<TRIPOS>BOND
     1    35    36    1
     2    36    29    1
     3    29    30   ar
     4    30    31   ar
     5    31    32   ar
     6    32    33   ar
     7    33    34   ar
     8    34    28    1
     9    28    22    1
    10    22    23   ar
    11    23    24   ar
    12    24    25   ar
    13    25    26   ar
    14    26    21    1
    15    21     1    1
    16     1     2    1
    17     2     3    1
    18     3     4    1
    19     4     5    1
    20     5     6    1
    21     4     7    1
    22     7     8    1
    23     8     9    1
    24     9    10   am
    25    10    11    2
    26    10    14    1
    27    14    15   ar
    28    15    16   ar
    29    16    17   ar
    30    17    18   ar
    31    18    19   ar
    32    19    20    1
    33     9    12    1
    34    12    13    1
    35    26    27   ar
    36    34    29   ar
    37    27    22   ar
    38     6     1    1
    39    19    14   ar
    40    13     4    1
@<TRIPOS>MOLECULE
*****
 36 40 0 0 0
SMALL
GASTEIGER

@<TRIPOS>ATOM
      1 N         139.1247  141.6561  160.1340 N.3     1  UNL1       -0.2690
      2 C         138.5740  140.3438  159.6602 C.3     1  UNL1        0.0724
      3 C         139.4299  139.4228  158.8421 C.3     1  UNL1        0.0175
      4 C         140.8364  139.8142  158.4978 C.3     1  UNL1        0.0060
      5 C         141.3871  141.1265  158.9716 C.3     1  UNL1        0.0175
      6 C         140.5312  142.0474  159.7898 C.3     1  UNL1        0.0724
      7 C         140.2858  138.5018  158.0239 C.3     1  UNL1        0.0217
      8 C         141.1416  137.5809  157.2058 C.3     1  UNL1        0.0939
      9 N         142.5481  137.9723  156.8615 N.am    1  UNL1       -0.2712
     10 C         143.4040  137.0512  156.0434 C.2     1  UNL1        0.3141
     11 O         144.8105  137.4426  155.6991 O.2     1  UNL1       -0.2633
     12 C         143.0988  139.2846  157.3354 C.3     1  UNL1        0.0939
     13 C         142.2429  140.2056  158.1535 C.3     1  UNL1        0.0217
     14 C         142.8534  135.7389  155.5696 C.ar    1  UNL1        0.2906
     15 C         142.2864  135.6191  154.1860 C.ar    1  UNL1        0.0756
     16 C         141.7358  134.3068  153.7122 C.ar    1  UNL1        0.0127
     17 C         141.7520  133.1142  154.6219 C.ar    1  UNL1        0.0772
     18 C         142.3189  133.2340  156.0054 C.ar    1  UNL1        0.3017
     19 N         142.8696  134.5464  156.4793 N.ar    1  UNL1       -0.1531
     20 O         143.4365  134.6662  157.8628 O.co2   1  UNL1       -0.6187
     21 C         138.2688  142.5771  160.9522 C.3     1  UNL1        0.0992
     22 C         139.5107  142.2921  164.7107 C.ar    1  UNL1        0.1452
     23 C         139.5470  143.7381  165.1077 C.ar    1  UNL1        0.0375
     24 C         139.1573  144.7972  164.1195 C.ar    1  UNL1        0.0029
     25 C         138.7312  144.4102  162.7343 C.ar    1  UNL1       -0.0027
     26 C         138.6949  142.9641  162.3373 C.ar    1  UNL1       -0.0031
     27 C         139.0846  141.9050  163.3255 C.ar    1  UNL1        0.0346
     28 O         139.9005  141.2330  165.6989 O.3     1  UNL1       -0.4504
     29 C         139.3939  138.7296  165.2229 C.ar    1  UNL1        0.1730
     30 C         139.8430  137.3823  164.7403 C.ar    1  UNL1        0.0401
     31 C         141.2480  137.1910  164.2508 C.ar    1  UNL1        0.0033
     32 C         142.2038  138.3470  164.2441 C.ar    1  UNL1        0.0033
     33 C         141.7546  139.6944  164.7268 C.ar    1  UNL1        0.0406
     34 C         140.3497  139.8857  165.2162 C.ar    1  UNL1        0.1789
     35 C         137.6405  138.6010  167.1359 C.3     1  UNL1        0.2526
     36 O         137.9889  138.9210  165.7124 O.3     1  UNL1       -0.4684
@<TRIPOS>UNITY_ATOM_ATTR
19 1
charge 1
20 1
charge -1
@<TRIPOS>BOND
     1    35    36    1
     2    36    29    1
     3    29    30   ar
     4    30    31   ar
     5    31    32   ar
     6    32    33   ar
     7    33    34   ar
     8    34    28    1
     9    28    22    1
    10    22    23   ar
    11    23    24   ar
    12    24    25   ar
    13    25    26   ar
    14    26    21    1
    15    21     1    1
    16     1     2    1
    17     2     3    1
    18     3     4    1
    19     4     5    1
    20     5     6    1
    21     4     7    1
    22     7     8    1
    23     8     9    1
    24     9    10   am
    25    10    11    2
    26    10    14    1
    27    14    15   ar
    28    15    16   ar
    29    16    17   ar
    30    17    18   ar
    31    18    19   ar
    32    19    20    1
    33     9    12    1
    34    12    13    1
    35    26    27   ar
    36    34    29   ar
    37    27    22   ar
    38     6     1    1
    39    19    14   ar
    40    13     4    1
@<TRIPOS>MOLECULE
*****
 36 40 0 0 0
SMALL
GASTEIGER

@<TRIPOS>ATOM
      1 N         143.3176  139.1811  163.8560 N.3     1  UNL1       -0.2690
      2 C         142.7233  138.0214  163.1132 C.3     1  UNL1        0.0724
      3 C         142.6771  138.0354  161.6140 C.3     1  UNL1        0.0175
      4 C         143.2252  139.2090  160.8577 C.3     1  UNL1        0.0060
      5 C         143.8195  140.3688  161.6005 C.3     1  UNL1        0.0175
      6 C         143.8657  140.3548  163.0997 C.3     1  UNL1        0.0724
      7 C         142.6309  138.0493  160.1148 C.3     1  UNL1        0.0217
      8 C         142.5847  138.0632  158.6156 C.3     1  UNL1        0.0939
      9 N         143.1328  139.2369  157.8592 N.am    1  UNL1       -0.2712
     10 C         143.0866  139.2508  156.3599 C.2     1  UNL1        0.3141
     11 O         143.6347  140.4245  155.6036 O.2     1  UNL1       -0.2633
     12 C         143.7271  140.3966  158.6020 C.3     1  UNL1        0.0939
     13 C         143.7733  140.3827  160.1013 C.3     1  UNL1        0.0217
     14 C         142.4923  138.0911  155.6171 C.ar    1  UNL1        0.2906
     15 C         141.0377  138.1008  155.2512 C.ar    1  UNL1        0.0756
     16 C         140.4434  136.9411  154.5084 C.ar    1  UNL1        0.0127
     17 C         141.3038  135.7716  154.1314 C.ar    1  UNL1        0.0772
     18 C         142.7584  135.7619  154.4973 C.ar    1  UNL1        0.3017
     19 N         143.3527  136.9217  155.2401 N.ar    1  UNL1       -0.1531
     20 O         144.8074  136.9120  155.6060 O.co2   1  UNL1       -0.6187
     21 C         143.3638  139.1672  165.3553 C.3     1  UNL1        0.0992
     22 C         139.7508  140.5564  166.2305 C.ar    1  UNL1        0.1452
     23 C         139.7839  140.5082  167.7293 C.ar    1  UNL1        0.0375
     24 C         141.0104  140.0130  168.4369 C.ar    1  UNL1        0.0029
     25 C         142.2037  139.5660  167.6456 C.ar    1  UNL1       -0.0027
     26 C         142.1705  139.6142  166.1466 C.ar    1  UNL1       -0.0031
     27 C         140.9441  140.1094  165.4391 C.ar    1  UNL1        0.0346
     28 O         138.5243  141.0517  165.5230 O.3     1  UNL1       -0.4504
     29 C         137.8397  142.4561  163.4472 C.ar    1  UNL1        0.1730
     30 C         137.8866  143.7414  162.6754 C.ar    1  UNL1        0.0401
     31 C         138.6652  144.9079  163.2077 C.ar    1  UNL1        0.0033
     32 C         139.3968  144.7889  164.5118 C.ar    1  UNL1        0.0033
     33 C         139.3498  143.5035  165.2836 C.ar    1  UNL1        0.0406
     34 C         138.5713  142.3371  164.7512 C.ar    1  UNL1        0.1789
     35 C         137.7054  140.3325  161.9564 C.3     1  UNL1        0.2526
     36 O         137.0611  141.2896  162.9149 O.3     1  UNL1       -0.4684
@<TRIPOS>UNITY_ATOM_ATTR
19 1
charge 1
20 1
charge -1
@<TRIPOS>BOND
     1    35    36    1
     2    36    29    1
     3    29    30   ar
     4    30    31   ar
     5    31    32   ar
     6    32    33   ar
     7    33    34   ar
     8    34    28    1
     9    28    22    1
    10    22    23   ar
    11    23    24   ar
    12    24    25   ar
    13    25    26   ar
    14    26    21    1
    15    21     1    1
    16     1     2    1
    17     2     3    1
    18     3     4    1
    19     4     5    1
    20     5     6    1
    21     4     7    1
    22     7     8    1
    23     8     9    1
    24     9    10   am
    25    10    11    2
    26    10    14    1
    27    14    15   ar
    28    15    16   ar
    29    16    17   ar
    30    17    18   ar
    31    18    19   ar
    32    19    20    1
    33     9    12    1
    34    12    13    1
    35    26    27   ar
    36    34    29   ar
    37    27    22   ar
    38     6     1    1
    39    19    14   ar
    40    13     4    1
@<TRIPOS>MOLECULE
*****
 36 40 0 0 0
SMALL
GASTEIGER

@<TRIPOS>ATOM
      1 N         140.7280  138.8260  160.4583 N.3     1  UNL1       -0.2690
      2 C         139.9695  139.8255  161.2802 C.3     1  UNL1        0.0724
      3 C         140.2662  139.9733  162.7430 C.3     1  UNL1        0.0175
      4 C         141.3215  139.1216  163.3840 C.3     1  UNL1        0.0060
      5 C         142.0801  138.1221  162.5622 C.3     1  UNL1        0.0175
      6 C         141.7834  137.9743  161.0993 C.3     1  UNL1        0.0724
      7 C         140.5630  140.1211  164.2060 C.3     1  UNL1        0.0217
      8 C         140.8597  140.2689  165.6689 C.3     1  UNL1        0.0939
      9 N         141.9150  139.4172  166.3099 N.am    1  UNL1       -0.2712
     10 C         142.2118  139.5650  167.7728 C.2     1  UNL1        0.3141
     11 O         143.2671  138.7133  168.4138 O.2     1  UNL1       -0.2633
     12 C         142.6736  138.4177  165.4880 C.3     1  UNL1        0.0939
     13 C         142.3769  138.2699  164.0250 C.3     1  UNL1        0.0217
     14 C         141.4532  140.5645  168.5947 C.ar    1  UNL1        0.2906
     15 C         140.1429  140.1835  169.2175 C.ar    1  UNL1        0.0756
     16 C         139.3843  141.1830  170.0394 C.ar    1  UNL1        0.0127
     17 C         139.9360  142.5636  170.2385 C.ar    1  UNL1        0.0772
     18 C         141.2463  142.9447  169.6156 C.ar    1  UNL1        0.3017
     19 N         142.0049  141.9451  168.7937 N.ar    1  UNL1       -0.1531
     20 O         143.3152  142.3261  168.1709 O.co2   1  UNL1       -0.6187
     21 C         140.4313  138.6781  158.9953 C.3     1  UNL1        0.0992
     22 C         143.3633  137.6277  156.5357 C.ar    1  UNL1        0.1452
     23 C         143.7627  138.9640  155.9837 C.ar    1  UNL1        0.0375
     24 C         143.0516  140.2050  156.4355 C.ar    1  UNL1        0.0029
     25 C         141.9412  140.1097  157.4394 C.ar    1  UNL1       -0.0027
     26 C         141.5417  138.7734  157.9915 C.ar    1  UNL1       -0.0031
     27 C         142.2528  137.5323  157.5396 C.ar    1  UNL1        0.0346
     28 O         144.0744  136.3866  156.0838 O.3     1  UNL1       -0.4504
     29 C         143.1512  133.9882  156.4655 C.ar    1  UNL1        0.1730
     30 C         142.3638  132.8070  155.9811 C.ar    1  UNL1        0.0401
     31 C         141.7122  132.8428  154.6304 C.ar    1  UNL1        0.0033
     32 C         141.8480  134.0599  153.7643 C.ar    1  UNL1        0.0033
     33 C         142.6354  135.2412  154.2488 C.ar    1  UNL1        0.0406
     34 C         143.2870  135.2053  155.5993 C.ar    1  UNL1        0.1789
     35 C         144.8473  132.9189  158.1178 C.3     1  UNL1        0.2526
     36 O         143.8028  133.9524  157.8162 O.3     1  UNL1       -0.4684
@<TRIPOS>UNITY_ATOM_ATTR
19 1
charge 1
20 1
charge -1
@<TRIPOS>BOND
     1    35    36    1
     2    36    29    1
     3    29    30   ar
     4    30    31   ar
     5    31    32   ar
     6    32    33   ar
     7    33    34   ar
     8    34    28    1
     9    28    22    1
    10    22    23   ar
    11    23    24   ar
    12    24    25   ar
    13    25    26   ar
    14    26    21    1
    15    21     1    1
    16     1     2    1
    17     2     3    1
    18     3     4    1
    19     4     5    1
    20     5     6    1
    21     4     7    1
    22     7     8    1
    23     8     9    1
    24     9    10   am
    25    10    11    2
    26    10    14    1
    27    14    15   ar
    28    15    16   ar
    29    16    17   ar
    30    17    18   ar
    31    18    19   ar
    32    19    20    1
    33     9    12    1
    34    12    13    1
    35    26    27   ar
    36    34    29   ar
    37    27    22   ar
    38     6     1    1
    39    19    14   ar
    40    13     4    1
@<TRIPOS>MOLECULE
*****
 36 40 0 0 0
SMALL
GASTEIGER

@<TRIPOS>ATOM
      1 N         139.1821  141.5683  160.1195 N.3     1  UNL1       -0.2690
      2 C         138.6394  140.2490  159.6559 C.3     1  UNL1        0.0724
      3 C         139.4953  139.3342  158.8310 C.3     1  UNL1        0.0175
      4 C         140.8938  139.7386  158.4697 C.3     1  UNL1        0.0060
      5 C         141.4365  141.0579  158.9333 C.3     1  UNL1        0.0175
      6 C         140.5806  141.9728  159.7582 C.3     1  UNL1        0.0724
      7 C         140.3512  138.4192  158.0061 C.3     1  UNL1        0.0217
      8 C         141.2071  137.5044  157.1812 C.3     1  UNL1        0.0939
      9 N         142.6056  137.9089  156.8199 N.am    1  UNL1       -0.2712
     10 C         143.4615  136.9939  155.9949 C.2     1  UNL1        0.3141
     11 O         144.8600  137.3984  155.6336 O.2     1  UNL1       -0.2633
     12 C         143.1482  139.2282  157.2834 C.3     1  UNL1        0.0939
     13 C         142.2924  140.1431  158.1084 C.3     1  UNL1        0.0217
     14 C         142.9188  135.6746  155.5314 C.ar    1  UNL1        0.2906
     15 C         142.4085  135.5246  154.1289 C.ar    1  UNL1        0.0756
     16 C         141.8658  134.2053  153.6653 C.ar    1  UNL1        0.0127
     17 C         141.8335  133.0359  154.6042 C.ar    1  UNL1        0.0772
     18 C         142.3439  133.1859  156.0068 C.ar    1  UNL1        0.3017
     19 N         142.8866  134.5053  156.4703 N.ar    1  UNL1       -0.1531
     20 O         143.3969  134.6553  157.8728 O.co2   1  UNL1       -0.6187
     21 C         138.3262  142.4832  160.9444 C.3     1  UNL1        0.0992
     22 C         140.1414  142.3102  164.4694 C.ar    1  UNL1        0.1452
     23 C         139.5229  143.4866  165.1647 C.ar    1  UNL1        0.0375
     24 C         138.5056  144.3286  164.4533 C.ar    1  UNL1        0.0029
     25 C         138.1067  143.9941  163.0466 C.ar    1  UNL1       -0.0027
     26 C         138.7251  142.8177  162.3512 C.ar    1  UNL1       -0.0031
     27 C         139.7425  141.9757  163.0626 C.ar    1  UNL1        0.0346
     28 O         141.1588  141.4683  165.1808 O.3     1  UNL1       -0.4504
     29 C         143.2122  140.3419  164.0561 C.ar    1  UNL1        0.1730
     30 C         144.6512  140.3890  163.6353 C.ar    1  UNL1        0.0401
     31 C         145.4758  141.6097  163.9184 C.ar    1  UNL1        0.0033
     32 C         144.8614  142.7831  164.6223 C.ar    1  UNL1        0.0033
     33 C         143.4224  142.7360  165.0431 C.ar    1  UNL1        0.0406
     34 C         142.5978  141.5154  164.7600 C.ar    1  UNL1        0.1789
     35 C         142.1977  138.0811  164.8370 C.3     1  UNL1        0.2526
     36 O         142.3875  139.1213  163.7730 O.3     1  UNL1       -0.4684
@<TRIPOS>UNITY_ATOM_ATTR
19 1
charge 1
20 1
charge -1
@<TRIPOS>BOND
     1    35    36    1
     2    36    29    1
     3    29    30   ar
     4    30    31   ar
     5    31    32   ar
     6    32    33   ar
     7    33    34   ar
     8    34    28    1
     9    28    22    1
    10    22    23   ar
    11    23    24   ar
    12    24    25   ar
    13    25    26   ar
    14    26    21    1
    15    21     1    1
    16     1     2    1
    17     2     3    1
    18     3     4    1
    19     4     5    1
    20     5     6    1
    21     4     7    1
    22     7     8    1
    23     8     9    1
    24     9    10   am
    25    10    11    2
    26    10    14    1
    27    14    15   ar
    28    15    16   ar
    29    16    17   ar
    30    17    18   ar
    31    18    19   ar
    32    19    20    1
    33     9    12    1
    34    12    13    1
    35    26    27   ar
    36    34    29   ar
    37    27    22   ar
    38     6     1    1
    39    19    14   ar
    40    13     4    1
@<TRIPOS>MOLECULE
*****
 36 40 0 0 0
SMALL
GASTEIGER

@<TRIPOS>ATOM
      1 N         140.0627  144.6539  161.8543 N.3     1  UNL1       -0.2690
      2 C         141.0323  144.7600  162.9939 C.3     1  UNL1        0.0724
      3 C         140.9125  143.8355  164.1690 C.3     1  UNL1        0.0175
      4 C         139.8231  142.8050  164.2045 C.3     1  UNL1        0.0060
      5 C         138.8535  142.6989  163.0650 C.3     1  UNL1        0.0175
      6 C         138.9733  143.6234  161.8899 C.3     1  UNL1        0.0724
      7 C         140.7927  142.9110  165.3442 C.3     1  UNL1        0.0217
      8 C         140.6730  141.9865  166.5193 C.3     1  UNL1        0.0939
      9 N         139.5836  140.9560  166.5548 N.am    1  UNL1       -0.2712
     10 C         139.4638  140.0315  167.7300 C.2     1  UNL1        0.3141
     11 O         138.3745  139.0009  167.7656 O.2     1  UNL1       -0.2633
     12 C         138.6140  140.8499  165.4153 C.3     1  UNL1        0.0939
     13 C         138.7338  141.7744  164.2401 C.3     1  UNL1        0.0217
     14 C         140.4334  140.1375  168.8696 C.ar    1  UNL1        0.2906
     15 C         141.8320  139.6176  168.7153 C.ar    1  UNL1        0.0756
     16 C         142.8015  139.7237  169.8548 C.ar    1  UNL1        0.0127
     17 C         142.3726  140.3497  171.1488 C.ar    1  UNL1        0.0772
     18 C         140.9741  140.8696  171.3031 C.ar    1  UNL1        0.3017
     19 N         140.0045  140.7635  170.1634 N.ar    1  UNL1       -0.1531
     20 O         138.6059  141.2834  170.3178 O.co2   1  UNL1       -0.6187
     21 C         140.1825  145.5784  160.6791 C.3     1  UNL1        0.0992
     22 C         142.7816  143.6932  158.3467 C.ar    1  UNL1        0.1452
     23 C         142.4313  144.2705  157.0073 C.ar    1  UNL1        0.0375
     24 C         141.3314  145.2839  156.8919 C.ar    1  UNL1        0.0029
     25 C         140.5818  145.7198  158.1158 C.ar    1  UNL1       -0.0027
     26 C         140.9321  145.1425  159.4552 C.ar    1  UNL1       -0.0031
     27 C         142.0320  144.1291  159.5707 C.ar    1  UNL1        0.0346
     28 O         143.8815  142.6798  158.4621 O.3     1  UNL1       -0.4504
     29 C         143.6176  140.5601  159.9411 C.ar    1  UNL1        0.1730
     30 C         143.8459  139.8459  161.2401 C.ar    1  UNL1        0.0401
     31 C         144.5667  140.5370  162.3595 C.ar    1  UNL1        0.0033
     32 C         145.0591  141.9425  162.1797 C.ar    1  UNL1        0.0033
     33 C         144.8307  142.6567  160.8805 C.ar    1  UNL1        0.0406
     34 C         144.1099  141.9656  159.7613 C.ar    1  UNL1        0.1789
     35 C         141.4576  139.4787  158.9844 C.3     1  UNL1        0.2526
     36 O         142.8968  139.8690  158.8217 O.3     1  UNL1       -0.4684
@<TRIPOS>UNITY_ATOM_ATTR
19 1
charge 1
20 1
charge -1
@<TRIPOS>BOND
     1    35    36    1
     2    36    29    1
     3    29    30   ar
     4    30    31   ar
     5    31    32   ar
     6    32    33   ar
     7    33    34   ar
     8    34    28    1
     9    28    22    1
    10    22    23   ar
    11    23    24   ar
    12    24    25   ar
    13    25    26   ar
    14    26    21    1
    15    21     1    1
    16     1     2    1
    17     2     3    1
    18     3     4    1
    19     4     5    1
    20     5     6    1
    21     4     7    1
    22     7     8    1
    23     8     9    1
    24     9    10   am
    25    10    11    2
    26    10    14    1
    27    14    15   ar
    28    15    16   ar
    29    16    17   ar
    30    17    18   ar
    31    18    19   ar
    32    19    20    1
    33     9    12    1
    34    12    13    1
    35    26    27   ar
    36    34    29   ar
    37    27    22   ar
    38     6     1    1
    39    19    14   ar
    40    13     4    1
@<TRIPOS>MOLECULE
*****
 36 40 0 0 0
SMALL
GASTEIGER

@<TRIPOS>ATOM
      1 N         142.3291  138.0529  157.5697 N.3     1  UNL1       -0.2690
      2 C         142.7740  137.8543  158.9883 C.3     1  UNL1        0.0724
      3 C         141.9418  138.3871  160.1168 C.3     1  UNL1        0.0175
      4 C         140.6647  139.1183  159.8267 C.3     1  UNL1        0.0060
      5 C         140.2197  139.3168  158.4081 C.3     1  UNL1        0.0175
      6 C         141.0519  138.7841  157.2796 C.3     1  UNL1        0.0724
      7 C         141.1096  138.9198  161.2455 C.3     1  UNL1        0.0217
      8 C         140.2774  139.4525  162.3740 C.3     1  UNL1        0.0939
      9 N         139.0002  140.1837  162.0839 N.am    1  UNL1       -0.2712
     10 C         138.1680  140.7165  163.2125 C.2     1  UNL1        0.3141
     11 O         136.8909  141.4477  162.9224 O.2     1  UNL1       -0.2633
     12 C         138.5553  140.3822  160.6652 C.3     1  UNL1        0.0939
     13 C         139.3875  139.8495  159.5366 C.3     1  UNL1        0.0217
     14 C         138.6130  140.5179  164.6311 C.ar    1  UNL1        0.2906
     15 C         138.1246  139.3337  165.4116 C.ar    1  UNL1        0.0756
     16 C         138.5696  139.1352  166.8302 C.ar    1  UNL1        0.0127
     17 C         139.5029  140.1210  167.4684 C.ar    1  UNL1        0.0772
     18 C         139.9913  141.3052  166.6880 C.ar    1  UNL1        0.3017
     19 N         139.5463  141.5036  165.2693 N.ar    1  UNL1       -0.1531
     20 O         140.0347  142.6879  164.4888 O.co2   1  UNL1       -0.6187
     21 C         143.1613  137.5201  156.4411 C.3     1  UNL1        0.0992
     22 C         142.3571  133.6779  155.8572 C.ar    1  UNL1        0.1452
     23 C         141.9945  133.6822  154.4018 C.ar    1  UNL1        0.0375
     24 C         142.0208  134.9658  153.6260 C.ar    1  UNL1        0.0029
     25 C         142.4097  136.2451  154.3058 C.ar    1  UNL1       -0.0027
     26 C         142.7724  136.2408  155.7613 C.ar    1  UNL1       -0.0031
     27 C         142.7461  134.9573  156.5371 C.ar    1  UNL1        0.0346
     28 O         142.3309  132.3943  156.6330 O.3     1  UNL1       -0.4504
     29 C         144.3474  130.9182  155.9225 C.ar    1  UNL1        0.1730
     30 C         144.8829  129.6592  155.3076 C.ar    1  UNL1        0.0401
     31 C         143.9372  128.6172  154.7881 C.ar    1  UNL1        0.0033
     32 C         142.4560  128.8342  154.8835 C.ar    1  UNL1        0.0033
     33 C         141.9206  130.0933  155.4985 C.ar    1  UNL1        0.0406
     34 C         142.8663  131.1353  156.0180 C.ar    1  UNL1        0.1789
     35 C         145.4522  132.1585  157.9204 C.3     1  UNL1        0.2526
     36 O         145.2932  131.9603  156.4421 O.3     1  UNL1       -0.4684
@<TRIPOS>UNITY_ATOM_ATTR
19 1
charge 1
20 1
charge -1
@<TRIPOS>BOND
     1    35    36    1
     2    36    29    1
     3    29    30   ar
     4    30    31   ar
     5    31    32   ar
     6    32    33   ar
     7    33    34   ar
     8    34    28    1
     9    28    22    1
    10    22    23   ar
    11    23    24   ar
    12    24    25   ar
    13    25    26   ar
    14    26    21    1
    15    21     1    1
    16     1     2    1
    17     2     3    1
    18     3     4    1
    19     4     5    1
    20     5     6    1
    21     4     7    1
    22     7     8    1
    23     8     9    1
    24     9    10   am
    25    10    11    2
    26    10    14    1
    27    14    15   ar
    28    15    16   ar
    29    16    17   ar
    30    17    18   ar
    31    18    19   ar
    32    19    20    1
    33     9    12    1
    34    12    13    1
    35    26    27   ar
    36    34    29   ar
    37    27    22   ar
    38     6     1    1
    39    19    14   ar
    40    13     4    1
@<TRIPOS>MOLECULE
*****
 36 40 0 0 0
SMALL
GASTEIGER

@<TRIPOS>ATOM
      1 N         143.5237  141.1967  163.6770 N.3     1  UNL1       -0.2690
      2 C         143.8605  139.8023  163.2384 C.3     1  UNL1        0.0724
      3 C         143.5679  139.3670  161.8331 C.3     1  UNL1        0.0175
      4 C         142.9386  140.3259  160.8665 C.3     1  UNL1        0.0060
      5 C         142.6019  141.7202  161.3051 C.3     1  UNL1        0.0175
      6 C         142.8944  142.1556  162.7104 C.3     1  UNL1        0.0724
      7 C         143.2753  138.9315  160.4278 C.3     1  UNL1        0.0217
      8 C         142.9827  138.4961  159.0225 C.3     1  UNL1        0.0939
      9 N         142.3534  139.4551  158.0559 N.am    1  UNL1       -0.2712
     10 C         142.0609  139.0196  156.6506 C.2     1  UNL1        0.3141
     11 O         141.4315  139.9786  155.6839 O.2     1  UNL1       -0.2633
     12 C         142.0167  140.8494  158.4945 C.3     1  UNL1        0.0939
     13 C         142.3093  141.2849  159.8998 C.3     1  UNL1        0.0217
     14 C         142.3976  137.6253  156.2120 C.ar    1  UNL1        0.2906
     15 C         141.3338  136.5680  156.1917 C.ar    1  UNL1        0.0756
     16 C         141.6706  135.1736  155.7531 C.ar    1  UNL1        0.0127
     17 C         143.0711  134.8366  155.3347 C.ar    1  UNL1        0.0772
     18 C         144.1348  135.8940  155.3549 C.ar    1  UNL1        0.3017
     19 N         143.7981  137.2884  155.7936 N.ar    1  UNL1       -0.1531
     20 O         144.8618  138.3458  155.8138 O.co2   1  UNL1       -0.6187
     21 C         143.8163  141.6321  165.0823 C.3     1  UNL1        0.0992
     22 C         140.3534  140.8553  166.8585 C.ar    1  UNL1        0.1452
     23 C         140.5829  141.4692  168.2077 C.ar    1  UNL1        0.0375
     24 C         141.8902  142.1373  168.5152 C.ar    1  UNL1        0.0029
     25 C         142.9680  142.1917  167.4734 C.ar    1  UNL1       -0.0027
     26 C         142.7385  141.5778  166.1241 C.ar    1  UNL1       -0.0031
     27 C         141.4312  140.9096  165.8166 C.ar    1  UNL1        0.0346
     28 O         139.0461  140.1871  166.5510 O.3     1  UNL1       -0.4504
     29 C         138.3073  140.3299  164.0643 C.ar    1  UNL1        0.1730
     30 C         138.0956  139.6735  162.7323 C.ar    1  UNL1        0.0401
     31 C         138.4109  138.2177  162.5550 C.ar    1  UNL1        0.0033
     32 C         138.9379  137.4184  163.7097 C.ar    1  UNL1        0.0033
     33 C         139.1497  138.0749  165.0417 C.ar    1  UNL1        0.0406
     34 C         138.8344  139.5306  165.2190 C.ar    1  UNL1        0.1789
     35 C         137.5419  142.6039  163.0678 C.3     1  UNL1        0.2526
     36 O         137.9920  141.7857  164.2416 O.3     1  UNL1       -0.4684
@<TRIPOS>UNITY_ATOM_ATTR
19 1
charge 1
20 1
charge -1
@<TRIPOS>BOND
     1    35    36    1
     2    36    29    1
     3    29    30   ar
     4    30    31   ar
     5    31    32   ar
     6    32    33   ar
     7    33    34   ar
     8    34    28    1
     9    28    22    1
    10    22    23   ar
    11    23    24   ar
    12    24    25   ar
    13    25    26   ar
    14    26    21    1
    15    21     1    1
    16     1     2    1
    17     2     3    1
    18     3     4    1
    19     4     5    1
    20     5     6    1
    21     4     7    1
    22     7     8    1
    23     8     9    1
    24     9    10   am
    25    10    11    2
    26    10    14    1
    27    14    15   ar
    28    15    16   ar
    29    16    17   ar
    30    17    18   ar
    31    18    19   ar
    32    19    20    1
    33     9    12    1
    34    12    13    1
    35    26    27   ar
    36    34    29   ar
    37    27    22   ar
    38     6     1    1
    39    19    14   ar
    40    13     4    1
@<TRIPOS>MOLECULE
*****
 36 40 0 0 0
SMALL
GASTEIGER

@<TRIPOS>ATOM
      1 N         138.7215  140.1292  161.0749 N.3     1  UNL1       -0.2690
      2 C         139.7601  141.0346  161.6678 C.3     1  UNL1        0.0724
      3 C         139.9457  141.0902  163.1552 C.3     1  UNL1        0.0175
      4 C         139.0927  140.2403  164.0497 C.3     1  UNL1        0.0060
      5 C         138.0542  139.3349  163.4568 C.3     1  UNL1        0.0175
      6 C         137.8685  139.2794  161.9694 C.3     1  UNL1        0.0724
      7 C         140.1314  141.1458  164.6427 C.3     1  UNL1        0.0217
      8 C         140.3170  141.2013  166.1301 C.3     1  UNL1        0.0939
      9 N         139.4640  140.3515  167.0246 N.am    1  UNL1       -0.2712
     10 C         139.6497  140.4071  168.5121 C.2     1  UNL1        0.3141
     11 O         138.7967  139.5572  169.4066 O.2     1  UNL1       -0.2633
     12 C         138.4254  139.4461  166.4317 C.3     1  UNL1        0.0939
     13 C         138.2398  139.3905  164.9442 C.3     1  UNL1        0.0217
     14 C         140.6883  141.3125  169.1049 C.ar    1  UNL1        0.2906
     15 C         140.3268  142.7156  169.4930 C.ar    1  UNL1        0.0756
     16 C         141.3654  143.6210  170.0859 C.ar    1  UNL1        0.0127
     17 C         142.7655  143.1233  170.2907 C.ar    1  UNL1        0.0772
     18 C         143.1270  141.7202  169.9026 C.ar    1  UNL1        0.3017
     19 N         142.0884  140.8148  169.3097 N.ar    1  UNL1       -0.1531
     20 O         142.4499  139.4116  168.9217 O.co2   1  UNL1       -0.6187
     21 C         138.5358  140.0737  159.5874 C.3     1  UNL1        0.0992
     22 C         142.1312  138.8668  158.4183 C.ar    1  UNL1        0.1452
     23 C         141.8967  138.6566  156.9518 C.ar    1  UNL1        0.0375
     24 C         140.5418  138.9187  156.3638 C.ar    1  UNL1        0.0029
     25 C         139.4216  139.3910  157.2423 C.ar    1  UNL1       -0.0027
     26 C         139.6561  139.6013  158.7089 C.ar    1  UNL1       -0.0031
     27 C         141.0109  139.3392  159.2969 C.ar    1  UNL1        0.0346
     28 O         143.4861  138.6048  159.0063 O.3     1  UNL1       -0.4504
     29 C         144.1839  140.5617  160.5662 C.ar    1  UNL1        0.1730
     30 C         144.5197  141.0757  161.9348 C.ar    1  UNL1        0.0401
     31 C         144.4934  140.1466  163.1122 C.ar    1  UNL1        0.0033
     32 C         144.1313  138.7036  162.9210 C.ar    1  UNL1        0.0033
     33 C         143.7955  138.1897  161.5523 C.ar    1  UNL1        0.0406
     34 C         143.8218  139.1187  160.3750 C.ar    1  UNL1        0.1789
     35 C         143.6509  142.8769  159.5146 C.3     1  UNL1        0.2526
     36 O         144.2102  141.4908  159.3888 O.3     1  UNL1       -0.4684
@<TRIPOS>UNITY_ATOM_ATTR
19 1
charge 1
20 1
charge -1
@<TRIPOS>BOND
     1    35    36    1
     2    36    29    1
     3    29    30   ar
     4    30    31   ar
     5    31    32   ar
     6    32    33   ar
     7    33    34   ar
     8    34    28    1
     9    28    22    1
    10    22    23   ar
    11    23    24   ar
    12    24    25   ar
    13    25    26   ar
    14    26    21    1
    15    21     1    1
    16     1     2    1
    17     2     3    1
    18     3     4    1
    19     4     5    1
    20     5     6    1
    21     4     7    1
    22     7     8    1
    23     8     9    1
    24     9    10   am
    25    10    11    2
    26    10    14    1
    27    14    15   ar
    28    15    16   ar
    29    16    17   ar
    30    17    18   ar
    31    18    19   ar
    32    19    20    1
    33     9    12    1
    34    12    13    1
    35    26    27   ar
    36    34    29   ar
    37    27    22   ar
    38     6     1    1
    39    19    14   ar
    40    13     4    1
