@<TRIPOS>MOLECULE
*****
 34 37 0 0 0
SMALL
GASTEIGER

@<TRIPOS>ATOM
      1 C         141.6504  143.7061  162.0879 C.3     1  UNL1        0.1751
      2 C         141.9187  143.9263  160.6286 C.ar    1  UNL1        0.0089
      3 C         142.8308  143.2335  159.6601 C.ar    1  UNL1       -0.0021
      4 C         142.8882  143.6839  158.2305 C.ar    1  UNL1       -0.0003
      5 C         142.0335  144.8272  157.7694 C.ar    1  UNL1        0.0001
      6 C         141.1214  145.5199  158.7379 C.ar    1  UNL1        0.0043
      7 C         141.0640  145.0695  160.1675 C.ar    1  UNL1        0.0516
      8 C         140.2675  145.5558  161.3419 C.2     1  UNL1        0.2493
      9 O         139.2817  146.6864  161.3312 O.2     1  UNL1       -0.2699
     10 N         140.6299  144.7132  162.5287 N.am    1  UNL1       -0.2658
     11 O         141.8254  141.2380  162.8800 O.2     1  UNL1       -0.2729
     12 C         142.2903  142.6621  162.9542 C.2     1  UNL1        0.2451
     13 N         143.3951  143.0423  163.8949 N.am    1  UNL1       -0.2988
     14 H         143.7003  143.9770  163.9437 H       1  UNL1        0.1498
     15 C         144.0350  141.9982  164.7613 C.3     1  UNL1        0.1164
     16 C         143.2837  141.4282  165.9276 C.ar    1  UNL1       -0.0024
     17 C         143.0498  139.9493  166.0187 C.ar    1  UNL1        0.0005
     18 C         142.2984  139.3793  167.1851 C.ar    1  UNL1        0.0369
     19 C         141.7809  140.2881  168.2605 C.ar    1  UNL1        0.1468
     20 C         142.0147  141.7669  168.1694 C.ar    1  UNL1        0.0369
     21 C         142.7662  142.3370  167.0029 C.ar    1  UNL1        0.0005
     22 O         141.0295  139.7180  169.4268 O.3     1  UNL1       -0.4045
     23 C         139.6901  140.2790  169.8028 C.3     1  UNL1        0.5753
     24 F         138.3508  140.8400  170.1788 F       1  UNL1       -0.1328
     25 F         140.2687  140.8013  171.0844 F       1  UNL1       -0.1328
     26 F         139.1116  139.7567  168.5212 F       1  UNL1       -0.1328
     27 C         140.0701  144.8532  163.9133 C.3     1  UNL1        0.0992
     28 C         138.7703  144.1934  164.2670 C.3     1  UNL1        0.0494
     29 C         138.6632  142.6972  164.2632 C.ar    1  UNL1       -0.0013
     30 C         139.3817  141.8913  165.3045 C.ar    1  UNL1       -0.0011
     31 C         139.2746  140.3951  165.3008 C.ar    1  UNL1        0.0204
     32 C         138.4490  139.7049  164.2557 C.ar    1  UNL1        0.0989
     33 N         137.7306  140.5109  163.2145 N.ar    1  UNL1       -0.2426
     34 C         137.8377  142.0070  163.2182 C.ar    1  UNL1        0.0946
@<TRIPOS>BOND
     1    11    12    2
     2    12    13   am
     3    13    15    1
     4    15    16    1
     5    16    17   ar
     6    17    18   ar
     7    18    19   ar
     8    19    22    1
     9    22    23    1
    10    23    24    1
    11    23    25    1
    12    23    26    1
    13    19    20   ar
    14    20    21   ar
    15    12     1    1
    16     1     2    1
    17     2     3   ar
    18     3     4   ar
    19     4     5   ar
    20     5     6   ar
    21     6     7   ar
    22     7     8    1
    23     8     9    2
    24     8    10   am
    25    10    27    1
    26    27    28    1
    27    28    29    1
    28    29    30   ar
    29    30    31   ar
    30    31    32   ar
    31    32    33   ar
    32    33    34   ar
    33    21    16   ar
    34    10     1    1
    35    34    29   ar
    36     7     2   ar
    37    13    14    1
@<TRIPOS>MOLECULE
*****
 34 37 0 0 0
SMALL
GASTEIGER

@<TRIPOS>ATOM
      1 C         140.4727  138.5935  161.2846 C.3     1  UNL1        0.1751
      2 C         141.1481  138.7226  159.9515 C.ar    1  UNL1        0.0089
      3 C         142.5556  138.4522  159.5090 C.ar    1  UNL1       -0.0021
      4 C         142.9488  138.6783  158.0793 C.ar    1  UNL1       -0.0003
      5 C         141.9345  139.1749  157.0920 C.ar    1  UNL1        0.0001
      6 C         140.5270  139.4454  157.5345 C.ar    1  UNL1        0.0043
      7 C         140.1338  139.2192  158.9643 C.ar    1  UNL1        0.0516
      8 C         138.8316  139.3970  159.6873 C.2     1  UNL1        0.2493
      9 O         137.5458  139.8772  159.0823 O.2     1  UNL1       -0.2699
     10 N         139.0411  139.0102  161.1213 N.am    1  UNL1       -0.2658
     11 O         140.8243  136.7568  163.0883 O.2     1  UNL1       -0.2729
     12 C         141.1161  138.1291  162.5576 C.2     1  UNL1        0.2451
     13 N         142.0514  139.0370  163.2999 N.am    1  UNL1       -0.2988
     14 H         142.2430  139.9377  162.9516 H       1  UNL1        0.1498
     15 C         142.6948  138.5726  164.5729 C.3     1  UNL1        0.1164
     16 C         142.2396  139.1287  165.8895 C.ar    1  UNL1       -0.0024
     17 C         140.9384  139.8693  165.9813 C.ar    1  UNL1        0.0005
     18 C         140.4833  140.4254  167.2980 C.ar    1  UNL1        0.0369
     19 C         141.3293  140.2409  168.5229 C.ar    1  UNL1        0.1468
     20 C         142.6304  139.5003  168.4310 C.ar    1  UNL1        0.0369
     21 C         143.0856  138.9442  167.1143 C.ar    1  UNL1        0.0005
     22 O         140.8741  140.7969  169.8395 O.3     1  UNL1       -0.4045
     23 C         140.3437  142.1978  169.9190 C.3     1  UNL1        0.5753
     24 F         139.8134  143.5986  169.9985 F       1  UNL1       -0.1328
     25 F         138.9810  141.6633  170.2467 F       1  UNL1       -0.1328
     26 F         141.7064  142.7323  169.5912 F       1  UNL1       -0.1328
     27 C         138.0014  139.0358  162.2023 C.3     1  UNL1        0.0992
     28 C         138.2109  139.8797  163.4246 C.3     1  UNL1        0.0494
     29 C         138.0857  141.3718  163.3362 C.ar    1  UNL1       -0.0013
     30 C         138.0313  142.1953  164.5889 C.ar    1  UNL1       -0.0011
     31 C         137.9061  143.6875  164.5005 C.ar    1  UNL1        0.0204
     32 C         137.8354  144.3561  163.1596 C.ar    1  UNL1        0.0989
     33 N         137.8898  143.5326  161.9071 N.ar    1  UNL1       -0.2426
     34 C         138.0150  142.0405  161.9954 C.ar    1  UNL1        0.0946
@<TRIPOS>BOND
     1    11    12    2
     2    12    13   am
     3    13    15    1
     4    15    16    1
     5    16    17   ar
     6    17    18   ar
     7    18    19   ar
     8    19    22    1
     9    22    23    1
    10    23    24    1
    11    23    25    1
    12    23    26    1
    13    19    20   ar
    14    20    21   ar
    15    12     1    1
    16     1     2    1
    17     2     3   ar
    18     3     4   ar
    19     4     5   ar
    20     5     6   ar
    21     6     7   ar
    22     7     8    1
    23     8     9    2
    24     8    10   am
    25    10    27    1
    26    27    28    1
    27    28    29    1
    28    29    30   ar
    29    30    31   ar
    30    31    32   ar
    31    32    33   ar
    32    33    34   ar
    33    21    16   ar
    34    10     1    1
    35    34    29   ar
    36     7     2   ar
    37    13    14    1
@<TRIPOS>MOLECULE
*****
 34 37 0 0 0
SMALL
GASTEIGER

@<TRIPOS>ATOM
      1 C         141.1718  140.6020  166.6197 C.3     1  UNL1        0.1751
      2 C         140.9943  141.3507  167.9073 C.ar    1  UNL1        0.0089
      3 C         141.7773  142.4646  168.5368 C.ar    1  UNL1       -0.0021
      4 C         141.3515  143.0254  169.8612 C.ar    1  UNL1       -0.0003
      5 C         140.1426  142.4724  170.5561 C.ar    1  UNL1        0.0001
      6 C         139.3596  141.3586  169.9266 C.ar    1  UNL1        0.0043
      7 C         139.7855  140.7978  168.6022 C.ar    1  UNL1        0.0516
      8 C         139.2158  139.7073  167.7440 C.2     1  UNL1        0.2493
      9 O         138.0024  138.8827  168.0564 O.2     1  UNL1       -0.2699
     10 N         140.0726  139.5863  166.5188 N.am    1  UNL1       -0.2658
     11 O         142.2958  142.1059  164.8239 O.2     1  UNL1       -0.2729
     12 C         142.2577  140.8292  165.6102 C.2     1  UNL1        0.2451
     13 N         143.3058  139.7794  165.3870 N.am    1  UNL1       -0.2988
     14 H         143.2809  138.9414  165.9030 H       1  UNL1        0.1498
     15 C         144.3918  140.0065  164.3775 C.3     1  UNL1        0.1164
     16 C         144.1382  139.7227  162.9266 C.ar    1  UNL1       -0.0024
     17 C         143.7016  138.3541  162.4952 C.ar    1  UNL1        0.0005
     18 C         143.4481  138.0703  161.0443 C.ar    1  UNL1        0.0369
     19 C         143.6312  139.1552  160.0247 C.ar    1  UNL1        0.1468
     20 C         144.0678  140.5239  160.4561 C.ar    1  UNL1        0.0369
     21 C         144.3213  140.8077  161.9071 C.ar    1  UNL1        0.0005
     22 O         143.3777  138.8714  158.5738 O.3     1  UNL1       -0.4045
     23 C         142.1011  138.2066  158.1515 C.3     1  UNL1        0.5753
     24 F         140.8245  137.5418  157.7291 F       1  UNL1       -0.1328
     25 F         142.8824  137.0363  157.6319 F       1  UNL1       -0.1328
     26 F         141.3198  139.3769  158.6710 F       1  UNL1       -0.1328
     27 C         139.8664  138.6195  165.3907 C.3     1  UNL1        0.0992
     28 C         138.7586  138.8429  164.4044 C.3     1  UNL1        0.0494
     29 C         138.9505  139.7992  163.2648 C.ar    1  UNL1       -0.0013
     30 C         140.3106  139.9805  162.6588 C.ar    1  UNL1       -0.0011
     31 C         140.5026  140.9368  161.5192 C.ar    1  UNL1        0.0204
     32 C         139.3343  141.7119  160.9858 C.ar    1  UNL1        0.0989
     33 N         137.9743  141.5307  161.5918 N.ar    1  UNL1       -0.2426
     34 C         137.7824  140.5743  162.7314 C.ar    1  UNL1        0.0946
@<TRIPOS>BOND
     1    11    12    2
     2    12    13   am
     3    13    15    1
     4    15    16    1
     5    16    17   ar
     6    17    18   ar
     7    18    19   ar
     8    19    22    1
     9    22    23    1
    10    23    24    1
    11    23    25    1
    12    23    26    1
    13    19    20   ar
    14    20    21   ar
    15    12     1    1
    16     1     2    1
    17     2     3   ar
    18     3     4   ar
    19     4     5   ar
    20     5     6   ar
    21     6     7   ar
    22     7     8    1
    23     8     9    2
    24     8    10   am
    25    10    27    1
    26    27    28    1
    27    28    29    1
    28    29    30   ar
    29    30    31   ar
    30    31    32   ar
    31    32    33   ar
    32    33    34   ar
    33    21    16   ar
    34    10     1    1
    35    34    29   ar
    36     7     2   ar
    37    13    14    1
@<TRIPOS>MOLECULE
*****
 34 37 0 0 0
SMALL
GASTEIGER

@<TRIPOS>ATOM
      1 C         139.7105  142.3128  162.1976 C.3     1  UNL1        0.1751
      2 C         139.3808  141.9271  160.7860 C.ar    1  UNL1        0.0089
      3 C         139.0584  140.6046  160.1561 C.ar    1  UNL1       -0.0021
      4 C         138.7644  140.5252  158.6873 C.ar    1  UNL1       -0.0003
      5 C         138.7930  141.7684  157.8485 C.ar    1  UNL1        0.0001
      6 C         139.1154  143.0910  158.4784 C.ar    1  UNL1        0.0043
      7 C         139.4094  143.1703  159.9471 C.ar    1  UNL1        0.0516
      8 C         139.7567  144.3243  160.8403 C.2     1  UNL1        0.2493
      9 O         139.8938  145.7568  160.4169 O.2     1  UNL1       -0.2699
     10 N         139.9428  143.7943  162.2312 N.am    1  UNL1       -0.2658
     11 O         140.9821  140.4799  163.5293 O.2     1  UNL1       -0.2729
     12 C         139.7933  141.3806  163.3698 C.2     1  UNL1        0.2451
     13 N         138.6872  141.3490  164.3826 N.am    1  UNL1       -0.2988
     14 H         137.9070  141.9402  164.2780 H       1  UNL1        0.1498
     15 C         138.7701  140.4168  165.5548 C.3     1  UNL1        0.1164
     16 C         139.5583  140.8077  166.7696 C.ar    1  UNL1       -0.0024
     17 C         139.5185  139.9481  167.9982 C.ar    1  UNL1        0.0005
     18 C         140.3068  140.3391  169.2130 C.ar    1  UNL1        0.0369
     19 C         141.1350  141.5897  169.1992 C.ar    1  UNL1        0.1468
     20 C         141.1748  142.4493  167.9707 C.ar    1  UNL1        0.0369
     21 C         140.3865  142.0583  166.7558 C.ar    1  UNL1        0.0005
     22 O         141.9233  141.9806  170.4140 O.3     1  UNL1       -0.4045
     23 C         143.3642  142.3748  170.2784 C.3     1  UNL1        0.5753
     24 F         144.8051  142.7689  170.1427 F       1  UNL1       -0.1328
     25 F         143.6928  141.0002  169.7757 F       1  UNL1       -0.1328
     26 F         143.0355  143.7493  170.7810 F       1  UNL1       -0.1328
     27 C         140.2987  144.6037  163.4429 C.3     1  UNL1        0.0992
     28 C         141.7061  145.0847  163.6366 C.3     1  UNL1        0.0494
     29 C         142.8475  144.1143  163.5612 C.ar    1  UNL1       -0.0013
     30 C         143.2416  143.3243  164.7740 C.ar    1  UNL1       -0.0011
     31 C         144.3829  142.3539  164.6986 C.ar    1  UNL1        0.0204
     32 C         145.1301  142.1735  163.4105 C.ar    1  UNL1        0.0989
     33 N         144.7360  142.9635  162.1978 N.ar    1  UNL1       -0.2426
     34 C         143.5947  143.9339  162.2732 C.ar    1  UNL1        0.0946
@<TRIPOS>BOND
     1    11    12    2
     2    12    13   am
     3    13    15    1
     4    15    16    1
     5    16    17   ar
     6    17    18   ar
     7    18    19   ar
     8    19    22    1
     9    22    23    1
    10    23    24    1
    11    23    25    1
    12    23    26    1
    13    19    20   ar
    14    20    21   ar
    15    12     1    1
    16     1     2    1
    17     2     3   ar
    18     3     4   ar
    19     4     5   ar
    20     5     6   ar
    21     6     7   ar
    22     7     8    1
    23     8     9    2
    24     8    10   am
    25    10    27    1
    26    27    28    1
    27    28    29    1
    28    29    30   ar
    29    30    31   ar
    30    31    32   ar
    31    32    33   ar
    32    33    34   ar
    33    21    16   ar
    34    10     1    1
    35    34    29   ar
    36     7     2   ar
    37    13    14    1
@<TRIPOS>MOLECULE
*****
 34 37 0 0 0
SMALL
GASTEIGER

@<TRIPOS>ATOM
      1 C         141.9432  137.6693  157.9735 C.3     1  UNL1        0.1751
      2 C         142.3032  136.7417  156.8510 C.ar    1  UNL1        0.0089
      3 C         143.5801  136.0360  156.5025 C.ar    1  UNL1       -0.0021
      4 C         143.6423  135.1524  155.2920 C.ar    1  UNL1       -0.0003
      5 C         142.4277  134.9746  154.4299 C.ar    1  UNL1        0.0001
      6 C         141.1509  135.6803  154.7784 C.ar    1  UNL1        0.0043
      7 C         141.0886  136.5639  155.9890 C.ar    1  UNL1        0.0516
      8 C         139.9779  137.3816  156.5787 C.2     1  UNL1        0.2493
      9 O         138.5838  137.4960  156.0370 O.2     1  UNL1       -0.2699
     10 N         140.5061  138.0648  157.8052 N.am    1  UNL1       -0.2658
     11 O         143.8307  139.2381  158.8255 O.2     1  UNL1       -0.2729
     12 C         142.8594  138.1219  159.0715 C.2     1  UNL1        0.2451
     13 N         142.8043  137.4583  160.4157 N.am    1  UNL1       -0.2988
     14 H         142.1668  136.7257  160.5772 H       1  UNL1        0.1498
     15 C         143.7206  137.9109  161.5137 C.3     1  UNL1        0.1164
     16 C         143.1564  138.3048  162.8465 C.ar    1  UNL1       -0.0024
     17 C         143.8534  139.3389  163.6801 C.ar    1  UNL1        0.0005
     18 C         143.2892  139.7327  165.0129 C.ar    1  UNL1        0.0369
     19 C         142.0280  139.0924  165.5123 C.ar    1  UNL1        0.1468
     20 C         141.3310  138.0583  164.6788 C.ar    1  UNL1        0.0369
     21 C         141.8952  137.6645  163.3458 C.ar    1  UNL1        0.0005
     22 O         141.4638  139.4863  166.8452 O.3     1  UNL1       -0.4045
     23 C         142.3612  140.0672  167.8974 C.3     1  UNL1        0.5753
     24 F         143.2585  140.6482  168.9497 F       1  UNL1       -0.1328
     25 F         141.8296  141.4368  167.5947 F       1  UNL1       -0.1328
     26 F         142.8928  138.6977  168.2002 F       1  UNL1       -0.1328
     27 C         139.7329  138.9824  158.7053 C.3     1  UNL1        0.0992
     28 C         139.2975  138.5114  160.0612 C.3     1  UNL1        0.0494
     29 C         139.4256  139.4202  161.2477 C.ar    1  UNL1       -0.0013
     30 C         140.5348  140.4286  161.3038 C.ar    1  UNL1       -0.0011
     31 C         140.6629  141.3374  162.4902 C.ar    1  UNL1        0.0204
     32 C         139.6818  141.2378  163.6206 C.ar    1  UNL1        0.0989
     33 N         138.5727  140.2296  163.5645 N.ar    1  UNL1       -0.2426
     34 C         138.4446  139.3208  162.3780 C.ar    1  UNL1        0.0946
@<TRIPOS>BOND
     1    11    12    2
     2    12    13   am
     3    13    15    1
     4    15    16    1
     5    16    17   ar
     6    17    18   ar
     7    18    19   ar
     8    19    22    1
     9    22    23    1
    10    23    24    1
    11    23    25    1
    12    23    26    1
    13    19    20   ar
    14    20    21   ar
    15    12     1    1
    16     1     2    1
    17     2     3   ar
    18     3     4   ar
    19     4     5   ar
    20     5     6   ar
    21     6     7   ar
    22     7     8    1
    23     8     9    2
    24     8    10   am
    25    10    27    1
    26    27    28    1
    27    28    29    1
    28    29    30   ar
    29    30    31   ar
    30    31    32   ar
    31    32    33   ar
    32    33    34   ar
    33    21    16   ar
    34    10     1    1
    35    34    29   ar
    36     7     2   ar
    37    13    14    1
@<TRIPOS>MOLECULE
*****
 34 37 0 0 0
SMALL
GASTEIGER

@<TRIPOS>ATOM
      1 C         138.9495  142.5466  161.4964 C.3     1  UNL1        0.1751
      2 C         139.1654  142.4348  160.0162 C.ar    1  UNL1        0.0089
      3 C         138.9384  141.3092  159.0510 C.ar    1  UNL1       -0.0021
      4 C         139.2535  141.4938  157.5962 C.ar    1  UNL1       -0.0003
      5 C         139.7956  142.8040  157.1065 C.ar    1  UNL1        0.0001
      6 C         140.0225  143.9295  158.0717 C.ar    1  UNL1        0.0043
      7 C         139.7074  143.7449  159.5265 C.ar    1  UNL1        0.0516
      8 C         139.8265  144.6664  160.7041 C.2     1  UNL1        0.2493
      9 O         140.3263  146.0803  160.6702 O.2     1  UNL1       -0.2699
     10 N         139.3581  143.9258  161.9215 N.am    1  UNL1       -0.2658
     11 O         136.9904  141.5093  162.8512 O.2     1  UNL1       -0.2729
     12 C         138.4183  141.4685  162.3938 C.2     1  UNL1        0.2451
     13 N         139.3151  140.3494  162.8339 N.am    1  UNL1       -0.2988
     14 H         140.2523  140.3226  162.5337 H       1  UNL1        0.1498
     15 C         138.7838  139.2712  163.7313 C.3     1  UNL1        0.1164
     16 C         138.8323  139.4437  165.2206 C.ar    1  UNL1       -0.0024
     17 C         139.7836  140.4297  165.8309 C.ar    1  UNL1        0.0005
     18 C         139.8320  140.6021  167.3202 C.ar    1  UNL1        0.0369
     19 C         138.9290  139.7885  168.1992 C.ar    1  UNL1        0.1468
     20 C         137.9776  138.8024  167.5888 C.ar    1  UNL1        0.0369
     21 C         137.9292  138.6300  166.0995 C.ar    1  UNL1        0.0005
     22 O         138.9774  139.9609  169.6884 O.3     1  UNL1       -0.4045
     23 C         140.0748  140.7693  170.3146 C.3     1  UNL1        0.5753
     24 F         141.1723  141.5777  170.9408 F       1  UNL1       -0.1328
     25 F         140.9575  139.5567  170.3331 F       1  UNL1       -0.1328
     26 F         139.1921  141.9819  170.2961 F       1  UNL1       -0.1328
     27 C         139.3072  144.4691  163.3188 C.3     1  UNL1        0.0992
     28 C         140.4129  144.1604  164.2842 C.3     1  UNL1        0.0494
     29 C         141.7911  143.8587  163.7747 C.ar    1  UNL1       -0.0013
     30 C         142.3255  142.4587  163.8411 C.ar    1  UNL1       -0.0011
     31 C         143.7037  142.1570  163.3316 C.ar    1  UNL1        0.0204
     32 C         144.5475  143.2555  162.7556 C.ar    1  UNL1        0.0989
     33 N         144.0130  144.6554  162.6892 N.ar    1  UNL1       -0.2426
     34 C         142.6348  144.9570  163.1987 C.ar    1  UNL1        0.0946
@<TRIPOS>BOND
     1    11    12    2
     2    12    13   am
     3    13    15    1
     4    15    16    1
     5    16    17   ar
     6    17    18   ar
     7    18    19   ar
     8    19    22    1
     9    22    23    1
    10    23    24    1
    11    23    25    1
    12    23    26    1
    13    19    20   ar
    14    20    21   ar
    15    12     1    1
    16     1     2    1
    17     2     3   ar
    18     3     4   ar
    19     4     5   ar
    20     5     6   ar
    21     6     7   ar
    22     7     8    1
    23     8     9    2
    24     8    10   am
    25    10    27    1
    26    27    28    1
    27    28    29    1
    28    29    30   ar
    29    30    31   ar
    30    31    32   ar
    31    32    33   ar
    32    33    34   ar
    33    21    16   ar
    34    10     1    1
    35    34    29   ar
    36     7     2   ar
    37    13    14    1
@<TRIPOS>MOLECULE
*****
 34 37 0 0 0
SMALL
GASTEIGER

@<TRIPOS>ATOM
      1 C         143.4066  141.8733  161.2655 C.3     1  UNL1        0.1751
      2 C         143.1878  141.2247  159.9308 C.ar    1  UNL1        0.0089
      3 C         143.3712  139.8128  159.4588 C.ar    1  UNL1       -0.0021
      4 C         143.0650  139.4521  158.0354 C.ar    1  UNL1       -0.0003
      5 C         142.5754  140.5033  157.0840 C.ar    1  UNL1        0.0001
      6 C         142.3920  141.9152  157.5560 C.ar    1  UNL1        0.0043
      7 C         142.6982  142.2759  158.9793 C.ar    1  UNL1        0.0516
      8 C         142.6144  143.5741  159.7261 C.2     1  UNL1        0.2493
      9 O         142.1707  144.8902  159.1594 O.2     1  UNL1       -0.2699
     10 N         143.0522  143.3253  161.1390 N.am    1  UNL1       -0.2658
     11 O         145.2813  141.4533  163.0145 O.2     1  UNL1       -0.2729
     12 C         143.8941  141.1897  162.5085 C.2     1  UNL1        0.2451
     13 N         142.9944  140.2425  163.2456 N.am    1  UNL1       -0.2988
     14 H         142.0839  140.0694  162.9136 H       1  UNL1        0.1498
     15 C         143.4819  139.5589  164.4887 C.3     1  UNL1        0.1164
     16 C         143.1500  140.1275  165.8364 C.ar    1  UNL1       -0.0024
     17 C         142.8279  139.2102  166.9788 C.ar    1  UNL1        0.0005
     18 C         142.4960  139.7789  168.3265 C.ar    1  UNL1        0.0369
     19 C         142.4862  141.2647  168.5320 C.ar    1  UNL1        0.1468
     20 C         142.8083  142.1819  167.3897 C.ar    1  UNL1        0.0369
     21 C         143.1402  141.6133  166.0419 C.ar    1  UNL1        0.0005
     22 O         142.1543  141.8333  169.8798 O.3     1  UNL1       -0.4045
     23 C         141.4713  143.1646  169.9848 C.3     1  UNL1        0.5753
     24 F         140.7883  144.4960  170.0897 F       1  UNL1       -0.1328
     25 F         142.7283  143.7656  170.5404 F       1  UNL1       -0.1328
     26 F         140.2143  142.5636  169.4291 F       1  UNL1       -0.1328
     27 C         143.1231  144.3488  162.2333 C.3     1  UNL1        0.0992
     28 C         142.2767  144.1931  163.4619 C.3     1  UNL1        0.0494
     29 C         140.7811  144.1950  163.3474 C.ar    1  UNL1       -0.0013
     30 C         139.9636  143.2562  164.1845 C.ar    1  UNL1       -0.0011
     31 C         138.4680  143.2581  164.0700 C.ar    1  UNL1        0.0204
     32 C         137.7898  144.1987  163.1184 C.ar    1  UNL1        0.0989
     33 N         138.6073  145.1374  162.2814 N.ar    1  UNL1       -0.2426
     34 C         140.1029  145.1355  162.3959 C.ar    1  UNL1        0.0946
@<TRIPOS>BOND
     1    11    12    2
     2    12    13   am
     3    13    15    1
     4    15    16    1
     5    16    17   ar
     6    17    18   ar
     7    18    19   ar
     8    19    22    1
     9    22    23    1
    10    23    24    1
    11    23    25    1
    12    23    26    1
    13    19    20   ar
    14    20    21   ar
    15    12     1    1
    16     1     2    1
    17     2     3   ar
    18     3     4   ar
    19     4     5   ar
    20     5     6   ar
    21     6     7   ar
    22     7     8    1
    23     8     9    2
    24     8    10   am
    25    10    27    1
    26    27    28    1
    27    28    29    1
    28    29    30   ar
    29    30    31   ar
    30    31    32   ar
    31    32    33   ar
    32    33    34   ar
    33    21    16   ar
    34    10     1    1
    35    34    29   ar
    36     7     2   ar
    37    13    14    1
@<TRIPOS>MOLECULE
*****
 34 37 0 0 0
SMALL
GASTEIGER

@<TRIPOS>ATOM
      1 C         140.6474  140.6128  166.4060 C.3     1  UNL1        0.1751
      2 C         140.4634  140.7609  167.8873 C.ar    1  UNL1        0.0089
      3 C         139.4219  140.2303  168.8273 C.ar    1  UNL1       -0.0021
      4 C         139.4990  140.5514  170.2905 C.ar    1  UNL1       -0.0003
      5 C         140.6176  141.4029  170.8136 C.ar    1  UNL1        0.0001
      6 C         141.6591  141.9335  169.8736 C.ar    1  UNL1        0.0043
      7 C         141.5820  141.6124  168.4104 C.ar    1  UNL1        0.0516
      8 C         142.4572  141.9906  167.2524 C.2     1  UNL1        0.2493
      9 O         143.6931  142.8379  167.3211 O.2     1  UNL1       -0.2699
     10 N         141.8796  141.3728  166.0136 N.am    1  UNL1       -0.2658
     11 O         138.3246  140.2519  165.2995 O.2     1  UNL1       -0.2729
     12 C         139.7556  139.8402  165.4797 C.2     1  UNL1        0.2451
     13 N         140.2950  138.6559  164.7336 N.am    1  UNL1       -0.2988
     14 H         141.2342  138.3856  164.8519 H       1  UNL1        0.1498
     15 C         139.4032  137.8834  163.8073 C.3     1  UNL1        0.1164
     16 C         139.1495  138.3868  162.4173 C.ar    1  UNL1       -0.0024
     17 C         137.8182  138.9821  162.0665 C.ar    1  UNL1        0.0005
     18 C         137.5646  139.4855  160.6765 C.ar    1  UNL1        0.0369
     19 C         138.6423  139.3936  159.6371 C.ar    1  UNL1        0.1468
     20 C         139.9736  138.7982  159.9879 C.ar    1  UNL1        0.0369
     21 C         140.2272  138.2948  161.3781 C.ar    1  UNL1        0.0005
     22 O         138.3886  139.8970  158.2471 O.3     1  UNL1       -0.4045
     23 C         137.9383  141.3116  158.0322 C.3     1  UNL1        0.5753
     24 F         137.4881  142.7261  157.8173 F       1  UNL1       -0.1328
     25 F         136.7847  140.8194  157.2095 F       1  UNL1       -0.1328
     26 F         139.0920  141.8038  158.8549 F       1  UNL1       -0.1328
     27 C         142.4364  141.4937  164.6260 C.3     1  UNL1        0.0992
     28 C         142.1225  142.7021  163.7946 C.3     1  UNL1        0.0494
     29 C         140.6955  143.0953  163.5518 C.ar    1  UNL1       -0.0013
     30 C         139.8443  142.2893  162.6157 C.ar    1  UNL1       -0.0011
     31 C         138.4173  142.6826  162.3729 C.ar    1  UNL1        0.0204
     32 C         137.8414  143.8817  163.0662 C.ar    1  UNL1        0.0989
     33 N         138.6925  144.6876  164.0021 N.ar    1  UNL1       -0.2426
     34 C         140.1196  144.2944  164.2449 C.ar    1  UNL1        0.0946
@<TRIPOS>BOND
     1    11    12    2
     2    12    13   am
     3    13    15    1
     4    15    16    1
     5    16    17   ar
     6    17    18   ar
     7    18    19   ar
     8    19    22    1
     9    22    23    1
    10    23    24    1
    11    23    25    1
    12    23    26    1
    13    19    20   ar
    14    20    21   ar
    15    12     1    1
    16     1     2    1
    17     2     3   ar
    18     3     4   ar
    19     4     5   ar
    20     5     6   ar
    21     6     7   ar
    22     7     8    1
    23     8     9    2
    24     8    10   am
    25    10    27    1
    26    27    28    1
    27    28    29    1
    28    29    30   ar
    29    30    31   ar
    30    31    32   ar
    31    32    33   ar
    32    33    34   ar
    33    21    16   ar
    34    10     1    1
    35    34    29   ar
    36     7     2   ar
    37    13    14    1
@<TRIPOS>MOLECULE
*****
 34 37 0 0 0
SMALL
GASTEIGER

@<TRIPOS>ATOM
      1 C         140.8535  140.1263  160.5688 C.3     1  UNL1        0.1751
      2 C         141.2598  139.1805  159.4777 C.ar    1  UNL1        0.0089
      3 C         142.5345  138.4328  159.2207 C.ar    1  UNL1       -0.0021
      4 C         142.6513  137.5398  158.0212 C.ar    1  UNL1       -0.0003
      5 C         141.4935  137.3945  157.0787 C.ar    1  UNL1        0.0001
      6 C         140.2188  138.1422  157.3357 C.ar    1  UNL1        0.0043
      7 C         140.1020  139.0351  158.5353 C.ar    1  UNL1        0.0516
      8 C         138.9801  139.8912  159.0438 C.2     1  UNL1        0.2493
      9 O         137.6306  140.0456  158.4073 O.2     1  UNL1       -0.2699
     10 N         139.4445  140.5655  160.3006 N.am    1  UNL1       -0.2658
     11 O         142.4697  141.8465  161.6545 O.2     1  UNL1       -0.2729
     12 C         141.7064  140.5572  161.7250 C.2     1  UNL1        0.2451
     13 N         141.7961  139.6987  162.9518 N.am    1  UNL1       -0.2988
     14 H         141.2952  138.8524  162.9981 H       1  UNL1        0.1498
     15 C         142.6490  140.1296  164.1080 C.3     1  UNL1        0.1164
     16 C         142.0359  140.8781  165.2542 C.ar    1  UNL1       -0.0024
     17 C         141.3779  142.2050  165.0173 C.ar    1  UNL1        0.0005
     18 C         140.7648  142.9535  166.1636 C.ar    1  UNL1        0.0369
     19 C         140.8098  142.3750  167.5468 C.ar    1  UNL1        0.1468
     20 C         141.4678  141.0481  167.7838 C.ar    1  UNL1        0.0369
     21 C         142.0809  140.2996  166.6375 C.ar    1  UNL1        0.0005
     22 O         140.1967  143.1235  168.6930 O.3     1  UNL1       -0.4045
     23 C         140.4851  142.7028  170.1036 C.3     1  UNL1        0.5753
     24 F         140.7734  142.2820  171.5142 F       1  UNL1       -0.1328
     25 F         139.2274  141.8853  170.1169 F       1  UNL1       -0.1328
     26 F         141.7427  143.5202  170.0903 F       1  UNL1       -0.1328
     27 C         138.6411  141.5128  161.1416 C.3     1  UNL1        0.0992
     28 C         137.6245  140.9806  162.1076 C.3     1  UNL1        0.0494
     29 C         138.0526  140.0733  163.2228 C.ar    1  UNL1       -0.0013
     30 C         138.1161  140.5917  164.6290 C.ar    1  UNL1       -0.0011
     31 C         138.5441  139.6844  165.7441 C.ar    1  UNL1        0.0204
     32 C         138.9087  138.2587  165.4531 C.ar    1  UNL1        0.0989
     33 N         138.8452  137.7404  164.0469 N.ar    1  UNL1       -0.2426
     34 C         138.4171  138.6477  162.9318 C.ar    1  UNL1        0.0946
@<TRIPOS>BOND
     1    11    12    2
     2    12    13   am
     3    13    15    1
     4    15    16    1
     5    16    17   ar
     6    17    18   ar
     7    18    19   ar
     8    19    22    1
     9    22    23    1
    10    23    24    1
    11    23    25    1
    12    23    26    1
    13    19    20   ar
    14    20    21   ar
    15    12     1    1
    16     1     2    1
    17     2     3   ar
    18     3     4   ar
    19     4     5   ar
    20     5     6   ar
    21     6     7   ar
    22     7     8    1
    23     8     9    2
    24     8    10   am
    25    10    27    1
    26    27    28    1
    27    28    29    1
    28    29    30   ar
    29    30    31   ar
    30    31    32   ar
    31    32    33   ar
    32    33    34   ar
    33    21    16   ar
    34    10     1    1
    35    34    29   ar
    36     7     2   ar
    37    13    14    1
