@<TRIPOS>MOLECULE
*****
 23 25 0 0 0
SMALL
GASTEIGER

@<TRIPOS>ATOM
      1 C         139.9300  139.9170  168.3016 C.3     1  UNL1        0.4076
      2 N         139.5937  140.6779  167.0534 N.ar    1  UNL1       -0.1706
      3 C         138.5959  140.1212  166.0816 C.ar    1  UNL1        0.2032
      4 C         138.2596  140.8821  164.8334 C.ar    1  UNL1        0.0646
      5 C         138.9212  142.1997  164.5570 C.ar    1  UNL1        0.0115
      6 C         139.9190  142.7563  165.5288 C.ar    1  UNL1        0.0646
      7 C         140.2553  141.9954  166.7770 C.ar    1  UNL1        0.2032
      8 C         137.9343  138.8036  166.3579 C.3     1  UNL1        0.1014
      9 C         138.4608  137.5518  165.7210 C.3     1  UNL1        0.0374
     10 C         139.3840  137.6412  164.5421 C.ar    1  UNL1       -0.0216
     11 C         140.8693  137.6080  164.7484 C.ar    1  UNL1       -0.0043
     12 C         141.7924  137.6974  163.5695 C.ar    1  UNL1       -0.0003
     13 C         141.2302  137.8201  162.1843 C.ar    1  UNL1       -0.0000
     14 C         139.7449  137.8533  161.9779 C.ar    1  UNL1       -0.0003
     15 C         138.8218  137.7639  163.1568 C.ar    1  UNL1       -0.0043
     16 C         141.2531  142.5521  167.7489 C.3     1  UNL1        0.1014
     17 C         142.6881  142.1206  167.6803 C.3     1  UNL1        0.0374
     18 C         143.3564  141.9475  166.3486 C.ar    1  UNL1       -0.0216
     19 C         143.3657  140.6031  165.6832 C.ar    1  UNL1       -0.0043
     20 C         144.0340  140.4301  164.3515 C.ar    1  UNL1       -0.0003
     21 C         144.6930  141.6013  163.6852 C.ar    1  UNL1       -0.0000
     22 C         144.6836  142.9456  164.3505 C.ar    1  UNL1       -0.0003
     23 C         144.0154  143.1187  165.6822 C.ar    1  UNL1       -0.0043
@<TRIPOS>UNITY_ATOM_ATTR
2 1
charge 1
@<TRIPOS>BOND
     1     1     2    1
     2     2     3   ar
     3     3     8    1
     4     8     9    1
     5     9    10    1
     6    10    11   ar
     7    11    12   ar
     8    12    13   ar
     9    13    14   ar
    10    14    15   ar
    11     3     4   ar
    12     4     5   ar
    13     5     6   ar
    14     6     7   ar
    15     7    16    1
    16    16    17    1
    17    17    18    1
    18    18    19   ar
    19    19    20   ar
    20    20    21   ar
    21    21    22   ar
    22    22    23   ar
    23     7     2   ar
    24    23    18   ar
    25    15    10   ar
@<TRIPOS>MOLECULE
*****
 23 25 0 0 0
SMALL
GASTEIGER

@<TRIPOS>ATOM
      1 C         142.6391  138.9438  166.0669 C.3     1  UNL1        0.4076
      2 N         142.6528  138.6473  164.5965 N.ar    1  UNL1       -0.1706
      3 C         141.4985  137.9263  163.9661 C.ar    1  UNL1        0.2032
      4 C         141.5122  137.6298  162.4957 C.ar    1  UNL1        0.0646
      5 C         142.6802  138.0543  161.6559 C.ar    1  UNL1        0.0115
      6 C         143.8346  138.7753  162.2863 C.ar    1  UNL1        0.0646
      7 C         143.8209  139.0718  163.7567 C.ar    1  UNL1        0.2032
      8 C         140.3303  137.5018  164.8059 C.3     1  UNL1        0.1014
      9 C         138.9315  137.7662  164.3335 C.3     1  UNL1        0.0374
     10 C         138.5099  139.1621  163.9816 C.ar    1  UNL1       -0.0216
     11 C         138.0906  139.4878  162.5787 C.ar    1  UNL1       -0.0043
     12 C         137.6691  140.8836  162.2269 C.ar    1  UNL1       -0.0003
     13 C         137.6668  141.9538  163.2780 C.ar    1  UNL1       -0.0000
     14 C         138.0860  141.6281  164.6809 C.ar    1  UNL1       -0.0003
     15 C         138.5076  140.2322  165.0327 C.ar    1  UNL1       -0.0043
     16 C         144.9753  139.7929  164.3871 C.3     1  UNL1        0.1014
     17 C         145.6178  140.9465  163.6756 C.3     1  UNL1        0.0374
     18 C         144.9676  142.2980  163.6985 C.ar    1  UNL1       -0.0216
     19 C         144.7089  142.9838  165.0073 C.ar    1  UNL1       -0.0043
     20 C         144.0586  144.3354  165.0302 C.ar    1  UNL1       -0.0003
     21 C         143.6670  145.0011  163.7443 C.ar    1  UNL1       -0.0000
     22 C         143.9256  144.3153  162.4356 C.ar    1  UNL1       -0.0003
     23 C         144.5759  142.9638  162.4127 C.ar    1  UNL1       -0.0043
@<TRIPOS>UNITY_ATOM_ATTR
2 1
charge 1
@<TRIPOS>BOND
     1     1     2    1
     2     2     3   ar
     3     3     8    1
     4     8     9    1
     5     9    10    1
     6    10    11   ar
     7    11    12   ar
     8    12    13   ar
     9    13    14   ar
    10    14    15   ar
    11     3     4   ar
    12     4     5   ar
    13     5     6   ar
    14     6     7   ar
    15     7    16    1
    16    16    17    1
    17    17    18    1
    18    18    19   ar
    19    19    20   ar
    20    20    21   ar
    21    21    22   ar
    22    22    23   ar
    23     7     2   ar
    24    23    18   ar
    25    15    10   ar
@<TRIPOS>MOLECULE
*****
 23 25 0 0 0
SMALL
GASTEIGER

@<TRIPOS>ATOM
      1 C         139.5933  140.4232  166.3673 C.3     1  UNL1        0.4076
      2 N         139.0488  140.4070  164.9697 N.ar    1  UNL1       -0.1706
      3 C         138.8516  139.1022  164.2567 C.ar    1  UNL1        0.2032
      4 C         138.3071  139.0860  162.8591 C.ar    1  UNL1        0.0646
      5 C         137.9597  140.3746  162.1745 C.ar    1  UNL1        0.0115
      6 C         138.1569  141.6795  162.8875 C.ar    1  UNL1        0.0646
      7 C         138.7014  141.6957  164.2851 C.ar    1  UNL1        0.2032
      8 C         139.1989  137.8134  164.9412 C.3     1  UNL1        0.1014
      9 C         140.4579  137.0850  164.5746 C.3     1  UNL1        0.0374
     10 C         141.7369  137.8458  164.3863 C.ar    1  UNL1       -0.0216
     11 C         142.4821  138.3670  165.5791 C.ar    1  UNL1       -0.0043
     12 C         143.7610  139.1278  165.3907 C.ar    1  UNL1       -0.0003
     13 C         144.2947  139.3674  164.0095 C.ar    1  UNL1       -0.0000
     14 C         143.5495  138.8462  162.8167 C.ar    1  UNL1       -0.0003
     15 C         142.2706  138.0854  163.0050 C.ar    1  UNL1       -0.0043
     16 C         138.8986  143.0006  164.9981 C.3     1  UNL1        0.1014
     17 C         139.7285  144.0806  164.3698 C.3     1  UNL1        0.0374
     18 C         141.2241  144.0334  164.4736 C.ar    1  UNL1       -0.0216
     19 C         141.8900  142.9053  165.2044 C.ar    1  UNL1       -0.0043
     20 C         143.3857  142.8582  165.3083 C.ar    1  UNL1       -0.0003
     21 C         144.2155  143.9390  164.6813 C.ar    1  UNL1       -0.0000
     22 C         143.5496  145.0671  163.9505 C.ar    1  UNL1       -0.0003
     23 C         142.0540  145.1143  163.8467 C.ar    1  UNL1       -0.0043
@<TRIPOS>UNITY_ATOM_ATTR
2 1
charge 1
@<TRIPOS>BOND
     1     1     2    1
     2     2     3   ar
     3     3     8    1
     4     8     9    1
     5     9    10    1
     6    10    11   ar
     7    11    12   ar
     8    12    13   ar
     9    13    14   ar
    10    14    15   ar
    11     3     4   ar
    12     4     5   ar
    13     5     6   ar
    14     6     7   ar
    15     7    16    1
    16    16    17    1
    17    17    18    1
    18    18    19   ar
    19    19    20   ar
    20    20    21   ar
    21    21    22   ar
    22    22    23   ar
    23     7     2   ar
    24    23    18   ar
    25    15    10   ar
@<TRIPOS>MOLECULE
*****
 23 25 0 0 0
SMALL
GASTEIGER

@<TRIPOS>ATOM
      1 C         138.1993  141.3715  164.6047 C.3     1  UNL1        0.4076
      2 N         139.1118  141.2544  165.7894 N.ar    1  UNL1       -0.1706
      3 C         139.0220  140.0583  166.6900 C.ar    1  UNL1        0.2032
      4 C         139.9346  139.9412  167.8747 C.ar    1  UNL1        0.0646
      5 C         140.9370  141.0202  168.1588 C.ar    1  UNL1        0.0115
      6 C         141.0269  142.2164  167.2582 C.ar    1  UNL1        0.0646
      7 C         140.1143  142.3335  166.0735 C.ar    1  UNL1        0.2032
      8 C         138.0196  138.9791  166.4060 C.3     1  UNL1        0.1014
      9 C         138.4576  137.7014  165.7538 C.3     1  UNL1        0.0374
     10 C         139.3720  137.7410  164.5653 C.ar    1  UNL1       -0.0216
     11 C         138.8055  137.9279  163.1891 C.ar    1  UNL1       -0.0043
     12 C         139.7198  137.9675  162.0007 C.ar    1  UNL1       -0.0003
     13 C         141.2007  137.8202  162.1885 C.ar    1  UNL1       -0.0000
     14 C         141.7672  137.6332  163.5647 C.ar    1  UNL1       -0.0003
     15 C         140.8529  137.5936  164.7531 C.ar    1  UNL1       -0.0043
     16 C         140.2041  143.5297  165.1729 C.3     1  UNL1        0.1014
     17 C         141.0781  143.4872  163.9545 C.3     1  UNL1        0.0374
     18 C         142.3988  142.7779  164.0033 C.ar    1  UNL1       -0.0216
     19 C         143.5952  143.4603  164.5975 C.ar    1  UNL1       -0.0043
     20 C         144.9160  142.7509  164.6462 C.ar    1  UNL1       -0.0003
     21 C         145.0404  141.3592  164.1008 C.ar    1  UNL1       -0.0000
     22 C         143.8441  140.6768  163.5065 C.ar    1  UNL1       -0.0003
     23 C         142.5233  141.3861  163.4578 C.ar    1  UNL1       -0.0043
@<TRIPOS>UNITY_ATOM_ATTR
2 1
charge 1
@<TRIPOS>BOND
     1     1     2    1
     2     2     3   ar
     3     3     8    1
     4     8     9    1
     5     9    10    1
     6    10    11   ar
     7    11    12   ar
     8    12    13   ar
     9    13    14   ar
    10    14    15   ar
    11     3     4   ar
    12     4     5   ar
    13     5     6   ar
    14     6     7   ar
    15     7    16    1
    16    16    17    1
    17    17    18    1
    18    18    19   ar
    19    19    20   ar
    20    20    21   ar
    21    21    22   ar
    22    22    23   ar
    23     7     2   ar
    24    23    18   ar
    25    15    10   ar
@<TRIPOS>MOLECULE
*****
 23 25 0 0 0
SMALL
GASTEIGER

@<TRIPOS>ATOM
      1 C         139.6009  140.4332  166.3538 C.3     1  UNL1        0.4076
      2 N         139.0367  140.3856  164.9647 N.ar    1  UNL1       -0.1706
      3 C         138.6261  141.6545  164.2782 C.ar    1  UNL1        0.2032
      4 C         138.0620  141.6069  162.8891 C.ar    1  UNL1        0.0646
      5 C         137.9084  140.2906  162.1866 C.ar    1  UNL1        0.0115
      6 C         138.3190  139.0217  162.8732 C.ar    1  UNL1        0.0646
      7 C         138.8831  139.0693  164.2623 C.ar    1  UNL1        0.2032
      8 C         138.7797  142.9709  164.9806 C.3     1  UNL1        0.1014
      9 C         139.6086  144.0581  164.3635 C.3     1  UNL1        0.0374
     10 C         141.1044  144.0100  164.4647 C.ar    1  UNL1       -0.0216
     11 C         141.7695  142.8997  165.2230 C.ar    1  UNL1       -0.0043
     12 C         143.2652  142.8516  165.3241 C.ar    1  UNL1       -0.0003
     13 C         144.0960  143.9138  164.6671 C.ar    1  UNL1       -0.0000
     14 C         143.4309  145.0240  163.9089 C.ar    1  UNL1       -0.0003
     15 C         141.9352  145.0721  163.8077 C.ar    1  UNL1       -0.0043
     16 C         139.2937  137.8003  164.9488 C.3     1  UNL1        0.1014
     17 C         140.5455  137.0901  164.5262 C.3     1  UNL1        0.0374
     18 C         141.8176  137.8618  164.3355 C.ar    1  UNL1       -0.0216
     19 C         142.3315  138.1306  162.9522 C.ar    1  UNL1       -0.0043
     20 C         143.6037  138.9022  162.7615 C.ar    1  UNL1       -0.0003
     21 C         144.3618  139.4051  163.9541 C.ar    1  UNL1       -0.0000
     22 C         143.8478  139.1363  165.3374 C.ar    1  UNL1       -0.0003
     23 C         142.5758  138.3646  165.5282 C.ar    1  UNL1       -0.0043
@<TRIPOS>UNITY_ATOM_ATTR
2 1
charge 1
@<TRIPOS>BOND
     1     1     2    1
     2     2     3   ar
     3     3     8    1
     4     8     9    1
     5     9    10    1
     6    10    11   ar
     7    11    12   ar
     8    12    13   ar
     9    13    14   ar
    10    14    15   ar
    11     3     4   ar
    12     4     5   ar
    13     5     6   ar
    14     6     7   ar
    15     7    16    1
    16    16    17    1
    17    17    18    1
    18    18    19   ar
    19    19    20   ar
    20    20    21   ar
    21    21    22   ar
    22    22    23   ar
    23     7     2   ar
    24    23    18   ar
    25    15    10   ar
@<TRIPOS>MOLECULE
*****
 23 25 0 0 0
SMALL
GASTEIGER

@<TRIPOS>ATOM
      1 C         141.2961  140.3767  162.5286 C.3     1  UNL1        0.4076
      2 N         141.9903  139.8220  163.7371 N.ar    1  UNL1       -0.1706
      3 C         141.1939  139.4352  164.9479 C.ar    1  UNL1        0.2032
      4 C         141.8881  138.8805  166.1564 C.ar    1  UNL1        0.0646
      5 C         143.3786  138.7126  166.1541 C.ar    1  UNL1        0.0115
      6 C         144.1750  139.0995  164.9433 C.ar    1  UNL1        0.0646
      7 C         143.4808  139.6541  163.7348 C.ar    1  UNL1        0.2032
      8 C         139.7033  139.6030  164.9503 C.3     1  UNL1        0.1014
      9 C         139.0780  140.7423  165.6992 C.3     1  UNL1        0.0374
     10 C         139.0568  142.1152  165.0952 C.ar    1  UNL1       -0.0216
     11 C         140.2657  142.9975  165.1956 C.ar    1  UNL1       -0.0043
     12 C         140.2444  144.3704  164.5916 C.ar    1  UNL1       -0.0003
     13 C         139.0143  144.8608  163.8871 C.ar    1  UNL1       -0.0000
     14 C         137.8054  143.9785  163.7867 C.ar    1  UNL1       -0.0003
     15 C         137.8267  142.6057  164.3907 C.ar    1  UNL1       -0.0043
     16 C         144.2773  140.0410  162.5239 C.3     1  UNL1        0.1014
     17 C         145.1959  141.2255  162.5775 C.3     1  UNL1        0.0374
     18 C         144.7320  142.5067  163.2048 C.ar    1  UNL1       -0.0216
     19 C         144.9306  142.7376  164.6735 C.ar    1  UNL1       -0.0043
     20 C         144.4666  144.0188  165.3007 C.ar    1  UNL1       -0.0003
     21 C         143.8042  145.0690  164.4592 C.ar    1  UNL1       -0.0000
     22 C         143.6056  144.8381  162.9904 C.ar    1  UNL1       -0.0003
     23 C         144.0695  143.5569  162.3632 C.ar    1  UNL1       -0.0043
@<TRIPOS>UNITY_ATOM_ATTR
2 1
charge 1
@<TRIPOS>BOND
     1     1     2    1
     2     2     3   ar
     3     3     8    1
     4     8     9    1
     5     9    10    1
     6    10    11   ar
     7    11    12   ar
     8    12    13   ar
     9    13    14   ar
    10    14    15   ar
    11     3     4   ar
    12     4     5   ar
    13     5     6   ar
    14     6     7   ar
    15     7    16    1
    16    16    17    1
    17    17    18    1
    18    18    19   ar
    19    19    20   ar
    20    20    21   ar
    21    21    22   ar
    22    22    23   ar
    23     7     2   ar
    24    23    18   ar
    25    15    10   ar
@<TRIPOS>MOLECULE
*****
 23 25 0 0 0
SMALL
GASTEIGER

@<TRIPOS>ATOM
      1 C         138.2057  141.3005  164.6046 C.3     1  UNL1        0.4076
      2 N         139.0943  141.2011  165.8090 N.ar    1  UNL1       -0.1706
      3 C         140.0356  142.3207  166.1411 C.ar    1  UNL1        0.2032
      4 C         140.9241  142.2213  167.3455 C.ar    1  UNL1        0.0646
      5 C         140.8713  141.0023  168.2179 C.ar    1  UNL1        0.0115
      6 C         139.9300  139.8826  167.8859 C.ar    1  UNL1        0.0646
      7 C         139.0415  139.9820  166.6814 C.ar    1  UNL1        0.2032
      8 C         140.0884  143.5398  165.2687 C.3     1  UNL1        0.1014
      9 C         140.9941  143.5681  164.0734 C.3     1  UNL1        0.0374
     10 C         142.3209  142.8699  164.1211 C.ar    1  UNL1       -0.0216
     11 C         143.5229  143.5802  164.6693 C.ar    1  UNL1       -0.0043
     12 C         144.8496  142.8820  164.7170 C.ar    1  UNL1       -0.0003
     13 C         144.9744  141.4735  164.2164 C.ar    1  UNL1       -0.0000
     14 C         143.7723  140.7632  163.6682 C.ar    1  UNL1       -0.0003
     15 C         142.4456  141.4614  163.6205 C.ar    1  UNL1       -0.0043
     16 C         138.1001  138.8623  166.3494 C.3     1  UNL1        0.1014
     17 C         138.6212  137.6088  165.7113 C.3     1  UNL1        0.0374
     18 C         139.4878  137.6932  164.4900 C.ar    1  UNL1       -0.0216
     19 C         140.9755  137.5481  164.6144 C.ar    1  UNL1       -0.0043
     20 C         141.8421  137.6325  163.3929 C.ar    1  UNL1       -0.0003
     21 C         141.2210  137.8621  162.0471 C.ar    1  UNL1       -0.0000
     22 C         139.7332  138.0073  161.9226 C.ar    1  UNL1       -0.0003
     23 C         138.8666  137.9228  163.1440 C.ar    1  UNL1       -0.0043
@<TRIPOS>UNITY_ATOM_ATTR
2 1
charge 1
@<TRIPOS>BOND
     1     1     2    1
     2     2     3   ar
     3     3     8    1
     4     8     9    1
     5     9    10    1
     6    10    11   ar
     7    11    12   ar
     8    12    13   ar
     9    13    14   ar
    10    14    15   ar
    11     3     4   ar
    12     4     5   ar
    13     5     6   ar
    14     6     7   ar
    15     7    16    1
    16    16    17    1
    17    17    18    1
    18    18    19   ar
    19    19    20   ar
    20    20    21   ar
    21    21    22   ar
    22    22    23   ar
    23     7     2   ar
    24    23    18   ar
    25    15    10   ar
@<TRIPOS>MOLECULE
*****
 23 25 0 0 0
SMALL
GASTEIGER

@<TRIPOS>ATOM
      1 C         142.0147  140.0948  166.4977 C.3     1  UNL1        0.4076
      2 N         141.8077  139.3645  165.2040 N.ar    1  UNL1       -0.1706
      3 C         142.9891  138.9690  164.3686 C.ar    1  UNL1        0.2032
      4 C         142.7821  138.2387  163.0749 C.ar    1  UNL1        0.0646
      5 C         141.3937  137.9038  162.6165 C.ar    1  UNL1        0.0115
      6 C         140.2123  138.2992  163.4518 C.ar    1  UNL1        0.0646
      7 C         140.4193  139.0296  164.7456 C.ar    1  UNL1        0.2032
      8 C         144.3776  139.3039  164.8270 C.3     1  UNL1        0.1014
      9 C         145.2370  140.2209  164.0082 C.3     1  UNL1        0.0374
     10 C         144.8015  141.6349  163.7607 C.ar    1  UNL1       -0.0216
     11 C         144.3104  142.4786  164.8995 C.ar    1  UNL1       -0.0043
     12 C         143.8750  143.8925  164.6520 C.ar    1  UNL1       -0.0003
     13 C         143.9306  144.4626  163.2657 C.ar    1  UNL1       -0.0000
     14 C         144.4217  143.6189  162.1269 C.ar    1  UNL1       -0.0003
     15 C         144.8571  142.2050  162.3744 C.ar    1  UNL1       -0.0043
     16 C         139.2378  139.4250  165.5809 C.3     1  UNL1        0.1014
     17 C         138.1660  140.2981  164.9986 C.3     1  UNL1        0.0374
     18 C         138.4192  141.7626  164.7964 C.ar    1  UNL1       -0.0216
     19 C         139.5036  142.4503  165.5718 C.ar    1  UNL1       -0.0043
     20 C         139.7567  143.9150  165.3697 C.ar    1  UNL1       -0.0003
     21 C         138.9255  144.6918  164.3922 C.ar    1  UNL1       -0.0000
     22 C         137.8411  144.0041  163.6168 C.ar    1  UNL1       -0.0003
     23 C         137.5880  142.5396  163.8189 C.ar    1  UNL1       -0.0043
@<TRIPOS>UNITY_ATOM_ATTR
2 1
charge 1
@<TRIPOS>BOND
     1     1     2    1
     2     2     3   ar
     3     3     8    1
     4     8     9    1
     5     9    10    1
     6    10    11   ar
     7    11    12   ar
     8    12    13   ar
     9    13    14   ar
    10    14    15   ar
    11     3     4   ar
    12     4     5   ar
    13     5     6   ar
    14     6     7   ar
    15     7    16    1
    16    16    17    1
    17    17    18    1
    18    18    19   ar
    19    19    20   ar
    20    20    21   ar
    21    21    22   ar
    22    22    23   ar
    23     7     2   ar
    24    23    18   ar
    25    15    10   ar
@<TRIPOS>MOLECULE
*****
 23 25 0 0 0
SMALL
GASTEIGER

@<TRIPOS>ATOM
      1 C         141.4911  140.9300  162.1564 C.3     1  UNL1        0.4076
      2 N         142.8642  141.1879  162.7022 N.ar    1  UNL1       -0.1706
      3 C         143.6166  140.0877  163.3904 C.ar    1  UNL1        0.2032
      4 C         144.9898  140.3456  163.9362 C.ar    1  UNL1        0.0646
      5 C         145.6106  141.7037  163.7938 C.ar    1  UNL1        0.0115
      6 C         144.8582  142.8038  163.1056 C.ar    1  UNL1        0.0646
      7 C         143.4851  142.5459  162.5598 C.ar    1  UNL1        0.2032
      8 C         142.9958  138.7296  163.5328 C.3     1  UNL1        0.1014
      9 C         142.4969  138.2696  164.8705 C.3     1  UNL1        0.0374
     10 C         141.0870  138.5667  165.2878 C.ar    1  UNL1       -0.0216
     11 C         139.9857  137.6073  164.9460 C.ar    1  UNL1       -0.0043
     12 C         138.5759  137.9044  165.3634 C.ar    1  UNL1       -0.0003
     13 C         138.2674  139.1608  166.1225 C.ar    1  UNL1       -0.0000
     14 C         139.3687  140.1201  166.4643 C.ar    1  UNL1       -0.0003
     15 C         140.7785  139.8231  166.0470 C.ar    1  UNL1       -0.0043
     16 C         142.7327  143.6461  161.8716 C.3     1  UNL1        0.1014
     17 C         142.0637  144.7173  162.6808 C.3     1  UNL1        0.0374
     18 C         140.7439  144.4455  163.3398 C.ar    1  UNL1       -0.0216
     19 C         139.4668  144.7178  162.6016 C.ar    1  UNL1       -0.0043
     20 C         138.1470  144.4459  163.2606 C.ar    1  UNL1       -0.0003
     21 C         138.1043  143.9017  164.6578 C.ar    1  UNL1       -0.0000
     22 C         139.3814  143.6294  165.3959 C.ar    1  UNL1       -0.0003
     23 C         140.7012  143.9013  164.7370 C.ar    1  UNL1       -0.0043
@<TRIPOS>UNITY_ATOM_ATTR
2 1
charge 1
@<TRIPOS>BOND
     1     1     2    1
     2     2     3   ar
     3     3     8    1
     4     8     9    1
     5     9    10    1
     6    10    11   ar
     7    11    12   ar
     8    12    13   ar
     9    13    14   ar
    10    14    15   ar
    11     3     4   ar
    12     4     5   ar
    13     5     6   ar
    14     6     7   ar
    15     7    16    1
    16    16    17    1
    17    17    18    1
    18    18    19   ar
    19    19    20   ar
    20    20    21   ar
    21    21    22   ar
    22    22    23   ar
    23     7     2   ar
    24    23    18   ar
    25    15    10   ar
