@<TRIPOS>MOLECULE
*****
 23 25 0 0 0
SMALL
GASTEIGER

@<TRIPOS>ATOM
      1 C         139.0750  141.6493  165.3622 C.ar    1  UNL1       -0.0001
      2 C         138.1301  140.5629  164.9417 C.ar    1  UNL1       -0.0000
      3 C         137.9820  139.3303  165.7837 C.ar    1  UNL1       -0.0002
      4 C         138.7787  139.1843  167.0462 C.ar    1  UNL1        0.0006
      5 C         139.7236  140.2708  167.4667 C.ar    1  UNL1        0.0315
      6 C         139.8717  141.5033  166.6246 C.ar    1  UNL1        0.0006
      7 C         140.5204  140.1248  168.7292 C.3     1  UNL1        0.2322
      8 C         139.1968  140.3361  169.4026 C.3     1  UNL1        0.0699
      9 N         141.0404  140.0230  170.1324 N.2     1  UNL1       -0.0630
     10 C         142.5188  139.7792  170.0623 C.2     1  UNL1        0.3012
     11 N         143.4416  139.6134  171.2332 N.pl3   1  UNL1       -0.2494
     12 C         142.9125  139.7304  168.6157 C.3     1  UNL1        0.1778
     13 S         141.6774  139.9440  167.7918 S.3     1  UNL1       -0.0772
     14 H         143.0868  139.6617  172.1503 H       1  UNL1        0.2881
     15 H         144.4020  139.4562  171.0847 H       1  UNL1        0.2881
     16 C         140.6664  144.8711  163.6777 C.ar    1  UNL1        0.1387
     17 C         139.5195  145.3468  162.8361 C.ar    1  UNL1        0.0369
     18 C         138.2244  144.5900  162.8366 C.ar    1  UNL1        0.0031
     19 C         138.0762  143.3576  163.6786 C.ar    1  UNL1        0.0002
     20 C         139.2231  142.8818  164.5201 C.ar    1  UNL1        0.0030
     21 C         140.5182  143.6386  164.5197 C.ar    1  UNL1        0.0369
     22 C         143.2612  144.8902  163.5475 C.3     1  UNL1        0.2525
     23 O         141.9615  145.6278  163.6772 O.3     1  UNL1       -0.4714
@<TRIPOS>BOND
     1    22    23    1
     2    23    16    1
     3    16    17   ar
     4    17    18   ar
     5    18    19   ar
     6    19    20   ar
     7    20     1    1
     8     1     2   ar
     9     2     3   ar
    10     3     4   ar
    11     4     5   ar
    12     5     7    1
    13     7     8    1
    14     7     9    1
    15     9    10    2
    16    10    11    1
    17    10    12    1
    18    12    13    1
    19     5     6   ar
    20    20    21   ar
    21    21    16   ar
    22     6     1   ar
    23    13     7    1
    24    11    14    1
    25    11    15    1
@<TRIPOS>MOLECULE
*****
 23 25 0 0 0
SMALL
GASTEIGER

@<TRIPOS>ATOM
      1 C         138.8904  139.6490  166.2458 C.ar    1  UNL1       -0.0001
      2 C         137.9696  139.0767  167.2823 C.ar    1  UNL1       -0.0000
      3 C         138.2181  139.3456  168.7370 C.ar    1  UNL1       -0.0002
      4 C         139.3876  140.1868  169.1551 C.ar    1  UNL1        0.0006
      5 C         140.3084  140.7591  168.1184 C.ar    1  UNL1        0.0315
      6 C         140.0598  140.4903  166.6639 C.ar    1  UNL1        0.0006
      7 C         141.4779  141.6004  168.5365 C.3     1  UNL1        0.2322
      8 C         140.8705  142.6207  167.6199 C.3     1  UNL1        0.0699
      9 N         142.5203  142.6549  168.7629 N.2     1  UNL1       -0.0630
     10 C         143.5275  142.1104  169.7321 C.2     1  UNL1        0.3012
     11 N         144.7415  142.8306  170.2396 N.pl3   1  UNL1       -0.2494
     12 C         143.1075  140.7194  170.1046 C.3     1  UNL1        0.1778
     13 S         141.8408  140.4042  169.3657 S.3     1  UNL1       -0.0772
     14 H         144.9336  143.7468  169.9348 H       1  UNL1        0.2881
     15 H         145.3462  142.3870  170.8774 H       1  UNL1        0.2881
     16 C         137.8595  140.1999  162.4532 C.ar    1  UNL1        0.1387
     17 C         138.1447  138.8426  161.8819 C.ar    1  UNL1        0.0369
     18 C         138.6784  137.7541  162.7653 C.ar    1  UNL1        0.0031
     19 C         138.9270  138.0229  164.2199 C.ar    1  UNL1        0.0002
     20 C         138.6418  139.3802  164.7911 C.ar    1  UNL1        0.0030
     21 C         138.1081  140.4687  163.9078 C.ar    1  UNL1        0.0369
     22 C         138.1473  142.5170  161.3139 C.3     1  UNL1        0.2525
     23 O         137.3258  141.2884  161.5698 O.3     1  UNL1       -0.4714
@<TRIPOS>BOND
     1    22    23    1
     2    23    16    1
     3    16    17   ar
     4    17    18   ar
     5    18    19   ar
     6    19    20   ar
     7    20     1    1
     8     1     2   ar
     9     2     3   ar
    10     3     4   ar
    11     4     5   ar
    12     5     7    1
    13     7     8    1
    14     7     9    1
    15     9    10    2
    16    10    11    1
    17    10    12    1
    18    12    13    1
    19     5     6   ar
    20    20    21   ar
    21    21    16   ar
    22     6     1   ar
    23    13     7    1
    24    11    14    1
    25    11    15    1
@<TRIPOS>MOLECULE
*****
 23 25 0 0 0
SMALL
GASTEIGER

@<TRIPOS>ATOM
      1 C         139.8809  141.3747  166.8327 C.ar    1  UNL1       -0.0001
      2 C         139.2355  140.0356  166.6323 C.ar    1  UNL1       -0.0000
      3 C         138.4017  139.7799  165.4119 C.ar    1  UNL1       -0.0002
      4 C         138.2133  140.8634  164.3918 C.ar    1  UNL1        0.0006
      5 C         138.8588  142.2026  164.5922 C.ar    1  UNL1        0.0315
      6 C         139.6926  142.4582  165.8126 C.ar    1  UNL1        0.0006
      7 C         138.6704  143.2861  163.5722 C.3     1  UNL1        0.2322
      8 C         137.4201  142.5307  163.2313 C.3     1  UNL1        0.0699
      9 N         138.2206  144.2117  162.4809 N.2     1  UNL1       -0.0630
     10 C         139.2323  145.3126  162.3606 C.2     1  UNL1        0.3012
     11 N         139.1785  146.4577  161.3932 N.pl3   1  UNL1       -0.2494
     12 C         140.3073  145.0674  163.3776 C.3     1  UNL1        0.1778
     13 S         139.9601  143.8150  164.1264 S.3     1  UNL1       -0.0772
     14 H         138.4278  146.5329  160.7607 H       1  UNL1        0.2881
     15 H         139.8938  147.1341  161.3907 H       1  UNL1        0.2881
     16 C         142.4206  140.7983  169.8274 C.ar    1  UNL1        0.1387
     17 C         142.3824  142.1415  170.4939 C.ar    1  UNL1        0.0369
     18 C         141.5104  143.2291  169.9401 C.ar    1  UNL1        0.0031
     19 C         140.6766  142.9735  168.7197 C.ar    1  UNL1        0.0002
     20 C         140.7148  141.6303  168.0532 C.ar    1  UNL1        0.0030
     21 C         141.5868  140.5427  168.6070 C.ar    1  UNL1        0.0369
     22 C         142.8891  138.2743  170.2270 C.3     1  UNL1        0.2525
     23 O         143.2926  139.7107  170.3812 O.3     1  UNL1       -0.4714
@<TRIPOS>BOND
     1    22    23    1
     2    23    16    1
     3    16    17   ar
     4    17    18   ar
     5    18    19   ar
     6    19    20   ar
     7    20     1    1
     8     1     2   ar
     9     2     3   ar
    10     3     4   ar
    11     4     5   ar
    12     5     7    1
    13     7     8    1
    14     7     9    1
    15     9    10    2
    16    10    11    1
    17    10    12    1
    18    12    13    1
    19     5     6   ar
    20    20    21   ar
    21    21    16   ar
    22     6     1   ar
    23    13     7    1
    24    11    14    1
    25    11    15    1
@<TRIPOS>MOLECULE
*****
 23 25 0 0 0
SMALL
GASTEIGER

@<TRIPOS>ATOM
      1 C         141.7601  142.3842  166.6357 C.ar    1  UNL1       -0.0001
      2 C         143.2461  142.2236  166.7613 C.ar    1  UNL1       -0.0000
      3 C         144.1580  142.8772  165.7656 C.ar    1  UNL1       -0.0002
      4 C         143.5837  143.6914  164.6443 C.ar    1  UNL1        0.0006
      5 C         142.0976  143.8519  164.5187 C.ar    1  UNL1        0.0315
      6 C         141.1858  143.1983  165.5143 C.ar    1  UNL1        0.0006
      7 C         141.5234  144.6661  163.3973 C.3     1  UNL1        0.2322
      8 C         142.9366  144.6820  162.8949 C.3     1  UNL1        0.0699
      9 N         141.2446  145.4836  162.1710 N.2     1  UNL1       -0.0630
     10 C         139.7790  145.8026  162.1499 C.2     1  UNL1        0.3012
     11 N         139.0657  146.6017  161.0998 N.pl3   1  UNL1       -0.2494
     12 C         139.1521  145.1823  163.3632 C.3     1  UNL1        0.1778
     13 S         140.2301  144.4799  164.1342 S.3     1  UNL1       -0.0772
     14 H         139.5667  146.9698  160.3364 H       1  UNL1        0.2881
     15 H         138.0965  146.7581  161.1741 H       1  UNL1        0.2881
     16 C         139.0462  139.9475  168.2002 C.ar    1  UNL1        0.1387
     17 C         139.0244  140.4233  169.6226 C.ar    1  UNL1        0.0369
     18 C         139.9145  141.5528  170.0493 C.ar    1  UNL1        0.0031
     19 C         140.8264  142.2064  169.0537 C.ar    1  UNL1        0.0002
     20 C         140.8482  141.7306  167.6314 C.ar    1  UNL1        0.0030
     21 C         139.9581  140.6011  167.2046 C.ar    1  UNL1        0.0369
     22 C         138.0598  138.4456  166.3237 C.3     1  UNL1        0.2525
     23 O         138.1561  138.8181  167.7735 O.3     1  UNL1       -0.4714
@<TRIPOS>BOND
     1    22    23    1
     2    23    16    1
     3    16    17   ar
     4    17    18   ar
     5    18    19   ar
     6    19    20   ar
     7    20     1    1
     8     1     2   ar
     9     2     3   ar
    10     3     4   ar
    11     4     5   ar
    12     5     7    1
    13     7     8    1
    14     7     9    1
    15     9    10    2
    16    10    11    1
    17    10    12    1
    18    12    13    1
    19     5     6   ar
    20    20    21   ar
    21    21    16   ar
    22     6     1   ar
    23    13     7    1
    24    11    14    1
    25    11    15    1
@<TRIPOS>MOLECULE
*****
 23 25 0 0 0
SMALL
GASTEIGER

@<TRIPOS>ATOM
      1 C         140.8236  139.0952  165.0443 C.ar    1  UNL1       -0.0001
      2 C         142.0484  138.2384  164.9200 C.ar    1  UNL1       -0.0000
      3 C         143.0850  138.2499  166.0042 C.ar    1  UNL1       -0.0002
      4 C         142.8967  139.1183  167.2127 C.ar    1  UNL1        0.0006
      5 C         141.6718  139.9752  167.3369 C.ar    1  UNL1        0.0315
      6 C         140.6353  139.9637  166.2528 C.ar    1  UNL1        0.0006
      7 C         141.4835  140.8437  168.5454 C.3     1  UNL1        0.2322
      8 C         142.8710  141.3166  168.2271 C.3     1  UNL1        0.0699
      9 N         141.5853  141.8110  169.6873 N.2     1  UNL1       -0.0630
     10 C         140.3000  141.7543  170.4587 C.2     1  UNL1        0.3012
     11 N         139.9690  142.5587  171.6807 N.pl3   1  UNL1       -0.2494
     12 C         139.4040  140.7520  169.7935 C.3     1  UNL1        0.1778
     13 S         140.1354  140.1892  168.6110 S.3     1  UNL1       -0.0772
     14 H         140.6266  143.1947  172.0444 H       1  UNL1        0.2881
     15 H         139.0941  142.4507  172.1190 H       1  UNL1        0.2881
     16 C         137.9652  140.3146  162.5760 C.ar    1  UNL1        0.1387
     17 C         137.7139  139.0608  161.7919 C.ar    1  UNL1        0.0369
     18 C         138.4991  137.8185  162.0919 C.ar    1  UNL1        0.0031
     19 C         139.5357  137.8300  163.1760 C.ar    1  UNL1        0.0002
     20 C         139.7870  139.0837  163.9601 C.ar    1  UNL1        0.0030
     21 C         139.0017  140.3260  163.6601 C.ar    1  UNL1        0.0369
     22 C         137.8803  142.8788  162.1665 C.3     1  UNL1        0.2525
     23 O         137.1799  141.5569  162.2760 O.3     1  UNL1       -0.4714
@<TRIPOS>BOND
     1    22    23    1
     2    23    16    1
     3    16    17   ar
     4    17    18   ar
     5    18    19   ar
     6    19    20   ar
     7    20     1    1
     8     1     2   ar
     9     2     3   ar
    10     3     4   ar
    11     4     5   ar
    12     5     7    1
    13     7     8    1
    14     7     9    1
    15     9    10    2
    16    10    11    1
    17    10    12    1
    18    12    13    1
    19     5     6   ar
    20    20    21   ar
    21    21    16   ar
    22     6     1   ar
    23    13     7    1
    24    11    14    1
    25    11    15    1
@<TRIPOS>MOLECULE
*****
 23 25 0 0 0
SMALL
GASTEIGER

@<TRIPOS>ATOM
      1 C         138.8418  140.9626  165.3277 C.ar    1  UNL1       -0.0001
      2 C         138.0941  139.7051  165.6584 C.ar    1  UNL1       -0.0000
      3 C         138.2764  139.0543  166.9976 C.ar    1  UNL1       -0.0002
      4 C         139.2064  139.6612  168.0060 C.ar    1  UNL1        0.0006
      5 C         139.9541  140.9188  167.6752 C.ar    1  UNL1        0.0315
      6 C         139.7718  141.5695  166.3361 C.ar    1  UNL1        0.0006
      7 C         140.8840  141.5257  168.6836 C.3     1  UNL1        0.2322
      8 C         139.7320  141.3381  169.6257 C.3     1  UNL1        0.0699
      9 N         141.5731  142.0934  169.8890 N.2     1  UNL1       -0.0630
     10 C         142.9567  142.5049  169.4809 C.2     1  UNL1        0.3012
     11 N         143.9925  143.1215  170.3737 N.pl3   1  UNL1       -0.2494
     12 C         143.1227  142.1916  168.0235 C.3     1  UNL1        0.1778
     13 S         141.8417  141.5864  167.5307 S.3     1  UNL1       -0.0772
     14 H         143.7881  143.2894  171.3220 H       1  UNL1        0.2881
     15 H         144.8767  143.3583  170.0114 H       1  UNL1        0.2881
     16 C         138.5070  143.7593  162.5318 C.ar    1  UNL1        0.1387
     17 C         138.2950  142.9149  161.3103 C.ar    1  UNL1        0.0369
     18 C         138.2654  141.4199  161.4279 C.ar    1  UNL1        0.0031
     19 C         138.4476  140.7691  162.7670 C.ar    1  UNL1        0.0002
     20 C         138.6595  141.6134  163.9885 C.ar    1  UNL1        0.0030
     21 C         138.6892  143.1085  163.8709 C.ar    1  UNL1        0.0369
     22 C         139.7458  145.9383  161.8485 C.3     1  UNL1        0.2525
     23 O         138.5366  145.2544  162.4143 O.3     1  UNL1       -0.4714
@<TRIPOS>BOND
     1    22    23    1
     2    23    16    1
     3    16    17   ar
     4    17    18   ar
     5    18    19   ar
     6    19    20   ar
     7    20     1    1
     8     1     2   ar
     9     2     3   ar
    10     3     4   ar
    11     4     5   ar
    12     5     7    1
    13     7     8    1
    14     7     9    1
    15     9    10    2
    16    10    11    1
    17    10    12    1
    18    12    13    1
    19     5     6   ar
    20    20    21   ar
    21    21    16   ar
    22     6     1   ar
    23    13     7    1
    24    11    14    1
    25    11    15    1
@<TRIPOS>MOLECULE
*****
 23 25 0 0 0
SMALL
GASTEIGER

@<TRIPOS>ATOM
      1 C         141.6716  143.4401  164.9553 C.ar    1  UNL1       -0.0001
      2 C         143.1571  143.2489  165.0361 C.ar    1  UNL1       -0.0000
      3 C         143.7636  142.5847  166.2366 C.ar    1  UNL1       -0.0002
      4 C         142.8846  142.1117  167.3561 C.ar    1  UNL1        0.0006
      5 C         141.3989  142.3028  167.2753 C.ar    1  UNL1        0.0315
      6 C         140.7925  142.9670  166.0749 C.ar    1  UNL1        0.0006
      7 C         140.5198  141.8298  168.3948 C.3     1  UNL1        0.2322
      8 C         141.0170  143.0598  169.0948 C.3     1  UNL1        0.0699
      9 N         139.7447  141.6139  169.6607 N.2     1  UNL1       -0.0630
     10 C         138.9522  140.3494  169.5090 C.2     1  UNL1        0.3012
     11 N         138.0353  139.7548  170.5366 N.pl3   1  UNL1       -0.2494
     12 C         139.2376  139.7838  168.1494 C.3     1  UNL1        0.1778
     13 S         140.2065  140.6987  167.4608 S.3     1  UNL1       -0.0772
     14 H         137.9126  140.2026  171.4047 H       1  UNL1        0.2881
     15 H         137.5563  138.9168  170.3429 H       1  UNL1        0.2881
     16 C         141.2418  144.8731  161.2794 C.ar    1  UNL1        0.1387
     17 C         139.8522  145.4327  161.3540 C.ar    1  UNL1        0.0369
     18 C         139.0689  145.3281  162.6290 C.ar    1  UNL1        0.0031
     19 C         139.6754  144.6639  163.8294 C.ar    1  UNL1        0.0002
     20 C         141.0651  144.1043  163.7548 C.ar    1  UNL1        0.0030
     21 C         141.8483  144.2089  162.4799 C.ar    1  UNL1        0.0369
     22 C         142.0728  143.8166  159.0561 C.3     1  UNL1        0.2525
     23 O         142.0251  144.9777  160.0045 O.3     1  UNL1       -0.4714
@<TRIPOS>BOND
     1    22    23    1
     2    23    16    1
     3    16    17   ar
     4    17    18   ar
     5    18    19   ar
     6    19    20   ar
     7    20     1    1
     8     1     2   ar
     9     2     3   ar
    10     3     4   ar
    11     4     5   ar
    12     5     7    1
    13     7     8    1
    14     7     9    1
    15     9    10    2
    16    10    11    1
    17    10    12    1
    18    12    13    1
    19     5     6   ar
    20    20    21   ar
    21    21    16   ar
    22     6     1   ar
    23    13     7    1
    24    11    14    1
    25    11    15    1
@<TRIPOS>MOLECULE
*****
 23 25 0 0 0
SMALL
GASTEIGER

@<TRIPOS>ATOM
      1 C         140.8614  139.0531  164.5388 C.ar    1  UNL1       -0.0001
      2 C         139.6797  138.1309  164.4856 C.ar    1  UNL1       -0.0000
      3 C         138.6182  138.2101  165.5426 C.ar    1  UNL1       -0.0002
      4 C         138.7386  139.2116  166.6528 C.ar    1  UNL1        0.0006
      5 C         139.9204  140.1339  166.7060 C.ar    1  UNL1        0.0315
      6 C         140.9818  140.0546  165.6490 C.ar    1  UNL1        0.0006
      7 C         140.0408  141.1354  167.8161 C.3     1  UNL1        0.2322
      8 C         140.5998  142.0225  166.7434 C.3     1  UNL1        0.0699
      9 N         140.2781  142.3224  168.7020 N.2     1  UNL1       -0.0630
     10 C         139.8406  141.9595  170.0902 C.2     1  UNL1        0.3012
     11 N         139.9002  142.8513  171.2948 N.pl3   1  UNL1       -0.2494
     12 C         139.3330  140.5483  170.0622 C.3     1  UNL1        0.1778
     13 S         139.4567  140.0390  168.6567 S.3     1  UNL1       -0.0772
     14 H         140.2518  143.7672  171.2123 H       1  UNL1        0.2881
     15 H         139.5878  142.5207  172.1680 H       1  UNL1        0.2881
     16 C         144.1044  139.8923  162.4107 C.ar    1  UNL1        0.1387
     17 C         144.0456  138.8156  161.3680 C.ar    1  UNL1        0.0369
     18 C         142.9255  137.8180  161.3822 C.ar    1  UNL1        0.0031
     19 C         141.8641  137.8972  162.4391 C.ar    1  UNL1        0.0002
     20 C         141.9228  138.9739  163.4818 C.ar    1  UNL1        0.0030
     21 C         143.0430  139.9714  163.4676 C.ar    1  UNL1        0.0369
     22 C         144.9224  142.3577  162.4577 C.3     1  UNL1        0.2525
     23 O         145.2245  140.8898  162.3964 O.3     1  UNL1       -0.4714
@<TRIPOS>BOND
     1    22    23    1
     2    23    16    1
     3    16    17   ar
     4    17    18   ar
     5    18    19   ar
     6    19    20   ar
     7    20     1    1
     8     1     2   ar
     9     2     3   ar
    10     3     4   ar
    11     4     5   ar
    12     5     7    1
    13     7     8    1
    14     7     9    1
    15     9    10    2
    16    10    11    1
    17    10    12    1
    18    12    13    1
    19     5     6   ar
    20    20    21   ar
    21    21    16   ar
    22     6     1   ar
    23    13     7    1
    24    11    14    1
    25    11    15    1
@<TRIPOS>MOLECULE
*****
 23 25 0 0 0
SMALL
GASTEIGER

@<TRIPOS>ATOM
      1 C         143.4500  140.2672  165.3622 C.ar    1  UNL1       -0.0001
      2 C         143.7306  138.8295  165.6848 C.ar    1  UNL1       -0.0000
      3 C         143.3813  138.2823  167.0372 C.ar    1  UNL1       -0.0002
      4 C         142.7514  139.1729  168.0667 C.ar    1  UNL1        0.0006
      5 C         142.4708  140.6107  167.7440 C.ar    1  UNL1        0.0315
      6 C         142.8201  141.1578  166.3917 C.ar    1  UNL1        0.0006
      7 C         141.8408  141.5013  168.7735 C.3     1  UNL1        0.2322
      8 C         143.1159  142.2817  168.6502 C.3     1  UNL1        0.0699
      9 N         141.4775  142.5551  169.7773 N.2     1  UNL1       -0.0630
     10 C         140.1094  142.2398  170.3057 C.2     1  UNL1        0.3012
     11 N         139.3558  143.0337  171.3313 N.pl3   1  UNL1       -0.2494
     12 C         139.6274  140.9912  169.6285 C.3     1  UNL1        0.1778
     13 S         140.6974  140.5348  168.6815 S.3     1  UNL1       -0.0772
     14 H         139.7584  143.8436  171.7201 H       1  UNL1        0.2881
     15 H         138.4586  142.7449  171.6156 H       1  UNL1        0.2881
     16 C         144.3010  142.8412  162.4638 C.ar    1  UNL1        0.1387
     17 C         144.4979  141.9088  161.3054 C.ar    1  UNL1        0.0369
     18 C         144.3456  140.4292  161.4993 C.ar    1  UNL1        0.0031
     19 C         143.9963  139.8820  162.8515 C.ar    1  UNL1        0.0002
     20 C         143.7993  140.8144  164.0099 C.ar    1  UNL1        0.0030
     21 C         143.9517  142.2940  163.8160 C.ar    1  UNL1        0.0369
     22 C         143.7925  145.2738  163.2212 C.3     1  UNL1        0.2525
     23 O         144.4533  144.3208  162.2699 O.3     1  UNL1       -0.4714
@<TRIPOS>BOND
     1    22    23    1
     2    23    16    1
     3    16    17   ar
     4    17    18   ar
     5    18    19   ar
     6    19    20   ar
     7    20     1    1
     8     1     2   ar
     9     2     3   ar
    10     3     4   ar
    11     4     5   ar
    12     5     7    1
    13     7     8    1
    14     7     9    1
    15     9    10    2
    16    10    11    1
    17    10    12    1
    18    12    13    1
    19     5     6   ar
    20    20    21   ar
    21    21    16   ar
    22     6     1   ar
    23    13     7    1
    24    11    14    1
    25    11    15    1
