@<TRIPOS>MOLECULE
*****
 30 32 0 0 0
SMALL
GASTEIGER

@<TRIPOS>ATOM
      1 N         137.6401  143.2878  161.9085 N.3     1  UNL1       -0.2972
      2 H         136.6912  143.4232  161.5598 H       1  UNL1        0.1233
      3 C         137.4150  142.4267  163.8340 C.3     1  UNL1        0.0161
      4 C         137.7037  141.8949  162.4615 C.3     1  UNL1        0.0461
      5 C         137.9923  141.3632  161.0889 C.3     1  UNL1        0.0161
      6 C         137.7672  140.5020  163.0145 C.3     1  UNL1        0.0408
      7 C         138.9507  140.0721  163.8298 C.ar    1  UNL1       -0.0209
      8 C         138.7694  139.6811  165.2665 C.ar    1  UNL1       -0.0042
      9 C         139.9528  139.2512  166.0818 C.ar    1  UNL1       -0.0003
     10 C         141.3175  139.2121  165.4604 C.ar    1  UNL1       -0.0000
     11 C         142.5009  138.7822  166.2757 C.ar    1  UNL1       -0.0000
     12 C         143.8655  138.7432  165.6542 C.ar    1  UNL1       -0.0000
     13 C         144.0467  139.1341  164.2174 C.ar    1  UNL1       -0.0000
     14 C         142.8634  139.5641  163.4021 C.ar    1  UNL1       -0.0000
     15 C         141.4988  139.6031  164.0236 C.ar    1  UNL1       -0.0003
     16 C         140.3153  140.0331  163.2083 C.ar    1  UNL1       -0.0042
     17 C         137.9482  144.4603  162.7919 C.3     1  UNL1        0.1020
     18 C         139.1589  145.3041  162.5233 C.3     1  UNL1        0.1697
     19 O         139.0741  146.4532  161.5628 O.3     1  UNL1       -0.3793
     20 H         138.1737  146.5113  161.2068 H       1  UNL1        0.2106
     21 C         140.4543  144.9988  163.2151 C.3     1  UNL1        0.2358
     22 O         140.8717  143.5744  163.4312 O.3     1  UNL1       -0.4721
     23 C         141.3954  143.1409  164.7683 C.ar    1  UNL1        0.1482
     24 C         140.4526  142.9630  165.9213 C.ar    1  UNL1        0.0376
     25 C         140.9763  142.5296  167.2584 C.ar    1  UNL1        0.0032
     26 C         142.4429  142.2740  167.4425 C.ar    1  UNL1        0.0009
     27 C         143.3857  142.4519  166.2895 C.ar    1  UNL1        0.0133
     28 C         142.8620  142.8853  164.9524 C.ar    1  UNL1        0.1023
     29 C         143.8048  143.0632  163.7994 C.1     1  UNL1        0.1035
     30 N         144.7477  143.2411  162.6464 N.1     1  UNL1       -0.1907
@<TRIPOS>BOND
     1     3     4    1
     2     4     5    1
     3     4     6    1
     4     6     7    1
     5     7     8   ar
     6     8     9   ar
     7     9    10   ar
     8    10    11   ar
     9    11    12   ar
    10    12    13   ar
    11    13    14   ar
    12    14    15   ar
    13    15    16   ar
    14     4     1    1
    15     1    17    1
    16    17    18    1
    17    18    19    1
    18    18    21    1
    19    21    22    1
    20    22    23    1
    21    23    24   ar
    22    24    25   ar
    23    25    26   ar
    24    26    27   ar
    25    27    28   ar
    26    28    29    1
    27    29    30    3
    28    16     7   ar
    29    28    23   ar
    30    15    10   ar
    31     1     2    1
    32    19    20    1
@<TRIPOS>MOLECULE
*****
 30 32 0 0 0
SMALL
GASTEIGER

@<TRIPOS>ATOM
      1 N         143.4988  144.4674  162.3633 N.3     1  UNL1       -0.2972
      2 H         143.6938  144.8476  163.2895 H       1  UNL1        0.1233
      3 C         141.8325  145.0328  163.5481 C.3     1  UNL1        0.0161
      4 C         142.0195  144.2281  162.2961 C.3     1  UNL1        0.0461
      5 C         142.2066  143.4234  161.0441 C.3     1  UNL1        0.0161
      6 C         140.5403  143.9888  162.2288 C.3     1  UNL1        0.0408
      7 C         139.9188  142.8984  163.0504 C.ar    1  UNL1       -0.0209
      8 C         138.6427  143.1556  163.7957 C.ar    1  UNL1       -0.0042
      9 C         138.0213  142.0652  164.6172 C.ar    1  UNL1       -0.0003
     10 C         138.6758  140.7177  164.6934 C.ar    1  UNL1       -0.0000
     11 C         138.0544  139.6274  165.5150 C.ar    1  UNL1       -0.0000
     12 C         138.7089  138.2799  165.5911 C.ar    1  UNL1       -0.0000
     13 C         139.9850  138.0228  164.8457 C.ar    1  UNL1       -0.0000
     14 C         140.6065  139.1131  164.0242 C.ar    1  UNL1       -0.0000
     15 C         139.9519  140.4606  163.9481 C.ar    1  UNL1       -0.0003
     16 C         140.5734  141.5510  163.1265 C.ar    1  UNL1       -0.0042
     17 C         144.4530  143.3293  162.1528 C.3     1  UNL1        0.1020
     18 C         145.0453  142.6189  163.3337 C.3     1  UNL1        0.1697
     19 O         146.3209  141.8446  163.1807 O.3     1  UNL1       -0.3793
     20 H         146.6279  141.9052  162.2625 H       1  UNL1        0.2106
     21 C         144.3622  142.6829  164.6675 C.3     1  UNL1        0.2358
     22 O         143.9714  141.4173  165.3715 O.3     1  UNL1       -0.4721
     23 C         142.7404  141.3850  166.2281 C.ar    1  UNL1        0.1482
     24 C         141.8625  142.5973  166.3256 C.ar    1  UNL1        0.0376
     25 C         140.6316  142.5649  167.1822 C.ar    1  UNL1        0.0032
     26 C         140.2786  141.3202  167.9413 C.ar    1  UNL1        0.0009
     27 C         141.1565  140.1079  167.8438 C.ar    1  UNL1        0.0133
     28 C         142.3874  140.1403  166.9872 C.ar    1  UNL1        0.1023
     29 C         143.2654  138.9280  166.8896 C.1     1  UNL1        0.1035
     30 N         144.1433  137.7157  166.7921 N.1     1  UNL1       -0.1907
@<TRIPOS>BOND
     1     3     4    1
     2     4     5    1
     3     4     6    1
     4     6     7    1
     5     7     8   ar
     6     8     9   ar
     7     9    10   ar
     8    10    11   ar
     9    11    12   ar
    10    12    13   ar
    11    13    14   ar
    12    14    15   ar
    13    15    16   ar
    14     4     1    1
    15     1    17    1
    16    17    18    1
    17    18    19    1
    18    18    21    1
    19    21    22    1
    20    22    23    1
    21    23    24   ar
    22    24    25   ar
    23    25    26   ar
    24    26    27   ar
    25    27    28   ar
    26    28    29    1
    27    29    30    3
    28    16     7   ar
    29    28    23   ar
    30    15    10   ar
    31     1     2    1
    32    19    20    1
@<TRIPOS>MOLECULE
*****
 30 32 0 0 0
SMALL
GASTEIGER

@<TRIPOS>ATOM
      1 N         145.2559  142.1683  161.9251 N.3     1  UNL1       -0.2972
      2 H         145.8187  141.7469  161.1862 H       1  UNL1        0.1233
      3 C         145.7557  141.7755  163.9490 C.3     1  UNL1        0.0161
      4 C         144.9383  141.0765  162.9035 C.3     1  UNL1        0.0461
      5 C         144.1208  140.3774  161.8580 C.3     1  UNL1        0.0161
      6 C         144.6207  139.9847  163.8818 C.3     1  UNL1        0.0408
      7 C         143.2896  139.9608  164.5729 C.ar    1  UNL1       -0.0209
      8 C         142.9084  141.0726  165.5049 C.ar    1  UNL1       -0.0042
      9 C         141.5774  141.0488  166.1961 C.ar    1  UNL1       -0.0003
     10 C         140.6274  139.9131  165.9553 C.ar    1  UNL1       -0.0000
     11 C         139.2964  139.8893  166.6464 C.ar    1  UNL1       -0.0000
     12 C         138.3465  138.7537  166.4056 C.ar    1  UNL1       -0.0000
     13 C         138.7276  137.6419  165.4736 C.ar    1  UNL1       -0.0000
     14 C         140.0587  137.6657  164.7824 C.ar    1  UNL1       -0.0000
     15 C         141.0086  138.8013  165.0233 C.ar    1  UNL1       -0.0003
     16 C         142.3397  138.8252  164.3321 C.ar    1  UNL1       -0.0042
     17 C         144.1450  142.9168  161.2500 C.3     1  UNL1        0.1020
     18 C         143.4181  144.0039  161.9848 C.3     1  UNL1        0.1697
     19 O         144.1892  145.1096  162.6428 O.3     1  UNL1       -0.3793
     20 H         145.1386  144.9718  162.4990 H       1  UNL1        0.2106
     21 C         141.9203  143.9852  162.0616 C.3     1  UNL1        0.2358
     22 O         141.2389  143.4819  163.2995 O.3     1  UNL1       -0.4721
     23 C         140.1503  142.4555  163.1918 C.ar    1  UNL1        0.1482
     24 C         140.3443  141.2442  162.3287 C.ar    1  UNL1        0.0376
     25 C         139.2557  140.2179  162.2210 C.ar    1  UNL1        0.0032
     26 C         137.9731  140.4030  162.9765 C.ar    1  UNL1        0.0009
     27 C         137.7791  141.6143  163.8396 C.ar    1  UNL1        0.0133
     28 C         138.8677  142.6405  163.9473 C.ar    1  UNL1        0.1023
     29 C         138.6738  143.8519  164.8105 C.1     1  UNL1        0.1035
     30 N         138.4799  145.0632  165.6736 N.1     1  UNL1       -0.1907
@<TRIPOS>BOND
     1     3     4    1
     2     4     5    1
     3     4     6    1
     4     6     7    1
     5     7     8   ar
     6     8     9   ar
     7     9    10   ar
     8    10    11   ar
     9    11    12   ar
    10    12    13   ar
    11    13    14   ar
    12    14    15   ar
    13    15    16   ar
    14     4     1    1
    15     1    17    1
    16    17    18    1
    17    18    19    1
    18    18    21    1
    19    21    22    1
    20    22    23    1
    21    23    24   ar
    22    24    25   ar
    23    25    26   ar
    24    26    27   ar
    25    27    28   ar
    26    28    29    1
    27    29    30    3
    28    16     7   ar
    29    28    23   ar
    30    15    10   ar
    31     1     2    1
    32    19    20    1
@<TRIPOS>MOLECULE
*****
 30 32 0 0 0
SMALL
GASTEIGER

@<TRIPOS>ATOM
      1 N         140.4267  145.7905  163.1863 N.3     1  UNL1       -0.2972
      2 H         140.0932  146.6491  163.6244 H       1  UNL1        0.1233
      3 C         139.1927  144.8835  164.6541 C.3     1  UNL1        0.0161
      4 C         139.2663  144.8405  163.1565 C.3     1  UNL1        0.0461
      5 C         139.3399  144.7974  161.6590 C.3     1  UNL1        0.0161
      6 C         138.1059  143.8904  163.1268 C.3     1  UNL1        0.0408
      7 C         138.3383  142.4173  163.2879 C.ar    1  UNL1       -0.0209
      8 C         138.8200  141.6024  162.1242 C.ar    1  UNL1       -0.0042
      9 C         139.0525  140.1294  162.2852 C.ar    1  UNL1       -0.0003
     10 C         138.8032  139.4711  163.6098 C.ar    1  UNL1       -0.0000
     11 C         139.0357  137.9980  163.7708 C.ar    1  UNL1       -0.0000
     12 C         138.7865  137.3397  165.0954 C.ar    1  UNL1       -0.0000
     13 C         138.3048  138.1546  166.2590 C.ar    1  UNL1       -0.0000
     14 C         138.0723  139.6277  166.0980 C.ar    1  UNL1       -0.0000
     15 C         138.3216  140.2859  164.7735 C.ar    1  UNL1       -0.0003
     16 C         138.0891  141.7591  164.6124 C.ar    1  UNL1       -0.0042
     17 C         141.6924  145.4066  163.8940 C.3     1  UNL1        0.1020
     18 C         142.7269  144.5825  163.1865 C.3     1  UNL1        0.1697
     19 O         143.9042  145.2505  162.5399 O.3     1  UNL1       -0.3793
     20 H         143.8440  146.2097  162.6711 H       1  UNL1        0.2106
     21 C         142.5843  143.0906  163.1254 C.3     1  UNL1        0.2358
     22 O         141.6306  142.3900  164.0472 O.3     1  UNL1       -0.4721
     23 C         141.9385  141.0047  164.5333 C.ar    1  UNL1        0.1482
     24 C         142.4992  139.9851  163.5868 C.ar    1  UNL1        0.0376
     25 C         142.8070  138.5999  164.0729 C.ar    1  UNL1        0.0032
     26 C         142.5541  138.2343  165.5055 C.ar    1  UNL1        0.0009
     27 C         141.9934  139.2539  166.4520 C.ar    1  UNL1        0.0133
     28 C         141.6856  140.6391  165.9659 C.ar    1  UNL1        0.1023
     29 C         141.1249  141.6588  166.9125 C.1     1  UNL1        0.1035
     30 N         140.5642  142.6785  167.8590 N.1     1  UNL1       -0.1907
@<TRIPOS>BOND
     1     3     4    1
     2     4     5    1
     3     4     6    1
     4     6     7    1
     5     7     8   ar
     6     8     9   ar
     7     9    10   ar
     8    10    11   ar
     9    11    12   ar
    10    12    13   ar
    11    13    14   ar
    12    14    15   ar
    13    15    16   ar
    14     4     1    1
    15     1    17    1
    16    17    18    1
    17    18    19    1
    18    18    21    1
    19    21    22    1
    20    22    23    1
    21    23    24   ar
    22    24    25   ar
    23    25    26   ar
    24    26    27   ar
    25    27    28   ar
    26    28    29    1
    27    29    30    3
    28    16     7   ar
    29    28    23   ar
    30    15    10   ar
    31     1     2    1
    32    19    20    1
@<TRIPOS>MOLECULE
*****
 30 32 0 0 0
SMALL
GASTEIGER

@<TRIPOS>ATOM
      1 N         137.0900  140.8786  162.4574 N.3     1  UNL1       -0.2972
      2 H         136.1232  140.6135  162.6458 H       1  UNL1        0.1233
      3 C         137.8704  139.2550  161.3371 C.3     1  UNL1        0.0161
      4 C         137.9366  139.6814  162.7737 C.3     1  UNL1        0.0461
      5 C         138.0029  140.1078  164.2103 C.3     1  UNL1        0.0161
      6 C         138.7833  138.4843  163.0899 C.3     1  UNL1        0.0408
      7 C         140.2010  138.6673  163.5447 C.ar    1  UNL1       -0.0209
      8 C         140.6970  137.9458  164.7626 C.ar    1  UNL1       -0.0042
      9 C         142.1146  138.1288  165.2174 C.ar    1  UNL1       -0.0003
     10 C         143.0363  139.0334  164.4542 C.ar    1  UNL1       -0.0000
     11 C         144.4539  139.2164  164.9090 C.ar    1  UNL1       -0.0000
     12 C         145.3754  140.1209  164.1458 C.ar    1  UNL1       -0.0000
     13 C         144.8794  140.8425  162.9279 C.ar    1  UNL1       -0.0000
     14 C         143.4618  140.6595  162.4732 C.ar    1  UNL1       -0.0000
     15 C         142.5402  139.7549  163.2363 C.ar    1  UNL1       -0.0003
     16 C         141.1225  139.5719  162.7815 C.ar    1  UNL1       -0.0042
     17 C         137.3300  142.1764  163.1702 C.3     1  UNL1        0.1020
     18 C         138.0907  143.2760  162.4903 C.3     1  UNL1        0.1697
     19 O         138.2907  143.2417  161.0041 O.3     1  UNL1       -0.3793
     20 H         137.8687  142.4482  160.6392 H       1  UNL1        0.2106
     21 C         138.6515  144.4097  163.2966 C.3     1  UNL1        0.2358
     22 O         140.1273  144.4902  163.5524 O.3     1  UNL1       -0.4721
     23 C         140.7578  143.6091  164.5899 C.ar    1  UNL1        0.1482
     24 C         139.8995  142.9094  165.6017 C.ar    1  UNL1        0.0376
     25 C         140.5300  142.0283  166.6391 C.ar    1  UNL1        0.0032
     26 C         142.0188  141.8470  166.6647 C.ar    1  UNL1        0.0009
     27 C         142.8770  142.5467  165.6529 C.ar    1  UNL1        0.0133
     28 C         142.2466  143.4277  164.6155 C.ar    1  UNL1        0.1023
     29 C         143.1049  144.1275  163.6037 C.1     1  UNL1        0.1035
     30 N         143.9631  144.8272  162.5919 N.1     1  UNL1       -0.1907
@<TRIPOS>BOND
     1     3     4    1
     2     4     5    1
     3     4     6    1
     4     6     7    1
     5     7     8   ar
     6     8     9   ar
     7     9    10   ar
     8    10    11   ar
     9    11    12   ar
    10    12    13   ar
    11    13    14   ar
    12    14    15   ar
    13    15    16   ar
    14     4     1    1
    15     1    17    1
    16    17    18    1
    17    18    19    1
    18    18    21    1
    19    21    22    1
    20    22    23    1
    21    23    24   ar
    22    24    25   ar
    23    25    26   ar
    24    26    27   ar
    25    27    28   ar
    26    28    29    1
    27    29    30    3
    28    16     7   ar
    29    28    23   ar
    30    15    10   ar
    31     1     2    1
    32    19    20    1
@<TRIPOS>MOLECULE
*****
 30 32 0 0 0
SMALL
GASTEIGER

@<TRIPOS>ATOM
      1 N         138.5152  144.5068  162.5238 N.3     1  UNL1       -0.2972
      2 H         139.1743  144.7111  161.7727 H       1  UNL1        0.1233
      3 C         140.4795  145.0842  163.0790 C.3     1  UNL1        0.0161
      4 C         139.3030  144.4962  163.8002 C.3     1  UNL1        0.0461
      5 C         138.1266  143.9081  164.5215 C.3     1  UNL1        0.0161
      6 C         140.0909  144.4855  165.0766 C.3     1  UNL1        0.0408
      7 C         140.6682  143.2001  165.5910 C.ar    1  UNL1       -0.0209
      8 C         140.2951  142.7037  166.9564 C.ar    1  UNL1       -0.0042
      9 C         140.8724  141.4184  167.4707 C.ar    1  UNL1       -0.0003
     10 C         141.8228  140.6294  166.6196 C.ar    1  UNL1       -0.0000
     11 C         142.4001  139.3440  167.1340 C.ar    1  UNL1       -0.0000
     12 C         143.3504  138.5551  166.2829 C.ar    1  UNL1       -0.0000
     13 C         143.7235  139.0515  164.9175 C.ar    1  UNL1       -0.0000
     14 C         143.1462  140.3369  164.4031 C.ar    1  UNL1       -0.0000
     15 C         142.1959  141.1258  165.2542 C.ar    1  UNL1       -0.0003
     16 C         141.6186  142.4112  164.7399 C.ar    1  UNL1       -0.0042
     17 C         137.7471  143.2878  162.1064 C.3     1  UNL1        0.1020
     18 C         138.2512  142.4324  160.9819 C.3     1  UNL1        0.1697
     19 O         138.4086  143.0152  159.6087 O.3     1  UNL1       -0.3793
     20 H         138.1431  143.9481  159.6210 H       1  UNL1        0.2106
     21 C         138.5977  140.9944  161.2307 C.3     1  UNL1        0.2358
     22 O         139.6979  140.6428  162.1878 O.3     1  UNL1       -0.4721
     23 C         139.3954  139.8322  163.4131 C.ar    1  UNL1        0.1482
     24 C         138.4479  140.3624  164.4481 C.ar    1  UNL1        0.0376
     25 C         138.1454  139.5518  165.6733 C.ar    1  UNL1        0.0032
     26 C         138.7904  138.2110  165.8637 C.ar    1  UNL1        0.0009
     27 C         139.7379  137.6808  164.8288 C.ar    1  UNL1        0.0133
     28 C         140.0403  138.4914  163.6035 C.ar    1  UNL1        0.1023
     29 C         140.9879  137.9612  162.5685 C.1     1  UNL1        0.1035
     30 N         141.9353  137.4310  161.5335 N.1     1  UNL1       -0.1907
@<TRIPOS>BOND
     1     3     4    1
     2     4     5    1
     3     4     6    1
     4     6     7    1
     5     7     8   ar
     6     8     9   ar
     7     9    10   ar
     8    10    11   ar
     9    11    12   ar
    10    12    13   ar
    11    13    14   ar
    12    14    15   ar
    13    15    16   ar
    14     4     1    1
    15     1    17    1
    16    17    18    1
    17    18    19    1
    18    18    21    1
    19    21    22    1
    20    22    23    1
    21    23    24   ar
    22    24    25   ar
    23    25    26   ar
    24    26    27   ar
    25    27    28   ar
    26    28    29    1
    27    29    30    3
    28    16     7   ar
    29    28    23   ar
    30    15    10   ar
    31     1     2    1
    32    19    20    1
@<TRIPOS>MOLECULE
*****
 30 32 0 0 0
SMALL
GASTEIGER

@<TRIPOS>ATOM
      1 N         142.8849  144.7710  161.9500 N.3     1  UNL1       -0.2972
      2 H         143.0638  145.7369  161.6755 H       1  UNL1        0.1233
      3 C         140.9319  144.2003  161.3498 C.3     1  UNL1        0.0161
      4 C         141.5369  144.7502  162.6075 C.3     1  UNL1        0.0461
      5 C         142.1418  145.3001  163.8651 C.3     1  UNL1        0.0161
      6 C         140.1888  144.7295  163.2650 C.3     1  UNL1        0.0408
      7 C         139.6670  143.4580  163.8660 C.ar    1  UNL1       -0.0209
      8 C         138.6442  142.6448  163.1293 C.ar    1  UNL1       -0.0042
      9 C         138.1224  141.3733  163.7303 C.ar    1  UNL1       -0.0003
     10 C         138.6233  140.9151  165.0679 C.ar    1  UNL1       -0.0000
     11 C         138.1015  139.6437  165.6688 C.ar    1  UNL1       -0.0000
     12 C         138.6024  139.1855  167.0064 C.ar    1  UNL1       -0.0000
     13 C         139.6252  139.9987  167.7430 C.ar    1  UNL1       -0.0000
     14 C         140.1470  141.2701  167.1421 C.ar    1  UNL1       -0.0000
     15 C         139.6461  141.7283  165.8045 C.ar    1  UNL1       -0.0003
     16 C         140.1679  142.9998  165.2035 C.ar    1  UNL1       -0.0042
     17 C         144.0945  144.3039  162.7042 C.3     1  UNL1        0.1020
     18 C         144.5345  142.8734  162.6044 C.3     1  UNL1        0.1697
     19 O         145.6853  142.5028  161.7165 O.3     1  UNL1       -0.3793
     20 H         146.0288  143.2997  161.2829 H       1  UNL1        0.2106
     21 C         143.8236  141.8133  163.3924 C.3     1  UNL1        0.2358
     22 O         142.4493  141.3711  162.9853 O.3     1  UNL1       -0.4721
     23 C         141.9144  140.0525  163.4601 C.ar    1  UNL1        0.1482
     24 C         142.3630  139.4914  164.7769 C.ar    1  UNL1        0.0376
     25 C         141.8281  138.1729  165.2516 C.ar    1  UNL1        0.0032
     26 C         140.8447  137.4154  164.4095 C.ar    1  UNL1        0.0009
     27 C         140.3962  137.9764  163.0927 C.ar    1  UNL1        0.0133
     28 C         140.9311  139.2950  162.6180 C.ar    1  UNL1        0.1023
     29 C         140.4826  139.8560  161.3011 C.1     1  UNL1        0.1035
     30 N         140.0341  140.4170  159.9843 N.1     1  UNL1       -0.1907
@<TRIPOS>BOND
     1     3     4    1
     2     4     5    1
     3     4     6    1
     4     6     7    1
     5     7     8   ar
     6     8     9   ar
     7     9    10   ar
     8    10    11   ar
     9    11    12   ar
    10    12    13   ar
    11    13    14   ar
    12    14    15   ar
    13    15    16   ar
    14     4     1    1
    15     1    17    1
    16    17    18    1
    17    18    19    1
    18    18    21    1
    19    21    22    1
    20    22    23    1
    21    23    24   ar
    22    24    25   ar
    23    25    26   ar
    24    26    27   ar
    25    27    28   ar
    26    28    29    1
    27    29    30    3
    28    16     7   ar
    29    28    23   ar
    30    15    10   ar
    31     1     2    1
    32    19    20    1
@<TRIPOS>MOLECULE
*****
 30 32 0 0 0
SMALL
GASTEIGER

@<TRIPOS>ATOM
      1 N         141.0876  145.2246  162.2150 N.3     1  UNL1       -0.2972
      2 H         140.8680  144.8039  161.3121 H       1  UNL1        0.1233
      3 C         142.3958  145.5621  163.8505 C.3     1  UNL1        0.0161
      4 C         142.4522  144.7353  162.6002 C.3     1  UNL1        0.0461
      5 C         142.5087  143.9085  161.3499 C.3     1  UNL1        0.0161
      6 C         143.8169  144.2460  162.9854 C.3     1  UNL1        0.0408
      7 C         143.9851  142.8730  163.5658 C.ar    1  UNL1       -0.0209
      8 C         145.0475  141.9583  163.0324 C.ar    1  UNL1       -0.0042
      9 C         145.2158  140.5855  163.6128 C.ar    1  UNL1       -0.0003
     10 C         144.3217  140.1273  164.7267 C.ar    1  UNL1       -0.0000
     11 C         144.4900  138.7544  165.3071 C.ar    1  UNL1       -0.0000
     12 C         143.5959  138.2963  166.4209 C.ar    1  UNL1       -0.0000
     13 C         142.5335  139.2111  166.9544 C.ar    1  UNL1       -0.0000
     14 C         142.3652  140.5839  166.3740 C.ar    1  UNL1       -0.0000
     15 C         143.2593  141.0420  165.2601 C.ar    1  UNL1       -0.0003
     16 C         143.0910  142.4149  164.6797 C.ar    1  UNL1       -0.0042
     17 C         139.9151  144.9603  163.1125 C.3     1  UNL1        0.1020
     18 C         138.8495  143.9932  162.6892 C.3     1  UNL1        0.1697
     19 O         137.4226  144.4453  162.5904 O.3     1  UNL1       -0.3793
     20 H         137.3630  145.3828  162.8323 H       1  UNL1        0.2106
     21 C         139.2108  142.5740  162.3647 C.3     1  UNL1        0.2358
     22 O         139.3852  141.5734  163.4685 O.3     1  UNL1       -0.4721
     23 C         140.2285  140.3526  163.2477 C.ar    1  UNL1        0.1482
     24 C         141.3130  140.3676  162.2116 C.ar    1  UNL1        0.0376
     25 C         142.1562  139.1468  161.9909 C.ar    1  UNL1        0.0032
     26 C         141.9149  137.9111  162.8063 C.ar    1  UNL1        0.0009
     27 C         140.8304  137.8962  163.8423 C.ar    1  UNL1        0.0133
     28 C         139.9872  139.1169  164.0631 C.ar    1  UNL1        0.1023
     29 C         138.9026  139.1020  165.0992 C.1     1  UNL1        0.1035
     30 N         137.8181  139.0870  166.1353 N.1     1  UNL1       -0.1907
@<TRIPOS>BOND
     1     3     4    1
     2     4     5    1
     3     4     6    1
     4     6     7    1
     5     7     8   ar
     6     8     9   ar
     7     9    10   ar
     8    10    11   ar
     9    11    12   ar
    10    12    13   ar
    11    13    14   ar
    12    14    15   ar
    13    15    16   ar
    14     4     1    1
    15     1    17    1
    16    17    18    1
    17    18    19    1
    18    18    21    1
    19    21    22    1
    20    22    23    1
    21    23    24   ar
    22    24    25   ar
    23    25    26   ar
    24    26    27   ar
    25    27    28   ar
    26    28    29    1
    27    29    30    3
    28    16     7   ar
    29    28    23   ar
    30    15    10   ar
    31     1     2    1
    32    19    20    1
@<TRIPOS>MOLECULE
*****
 30 32 0 0 0
SMALL
GASTEIGER

@<TRIPOS>ATOM
      1 N         141.7231  137.2262  162.3060 N.3     1  UNL1       -0.2972
      2 H         141.5731  136.2896  161.9310 H       1  UNL1        0.1233
      3 C         141.0306  137.2055  164.3110 C.3     1  UNL1        0.0161
      4 C         140.4512  137.6265  162.9930 C.3     1  UNL1        0.0461
      5 C         139.8718  138.0474  161.6750 C.3     1  UNL1        0.0161
      6 C         139.1792  138.0267  163.6800 C.3     1  UNL1        0.0408
      7 C         138.8226  139.4778  163.8117 C.ar    1  UNL1       -0.0209
      8 C         137.7347  140.0629  162.9607 C.ar    1  UNL1       -0.0042
      9 C         137.3780  141.5139  163.0925 C.ar    1  UNL1       -0.0003
     10 C         138.1092  142.3798  164.0752 C.ar    1  UNL1       -0.0000
     11 C         137.7525  143.8308  164.2069 C.ar    1  UNL1       -0.0000
     12 C         138.4836  144.6966  165.1896 C.ar    1  UNL1       -0.0000
     13 C         139.5715  144.1114  166.0406 C.ar    1  UNL1       -0.0000
     14 C         139.9282  142.6605  165.9089 C.ar    1  UNL1       -0.0000
     15 C         139.1970  141.7946  164.9262 C.ar    1  UNL1       -0.0003
     16 C         139.5537  140.3436  164.7944 C.ar    1  UNL1       -0.0042
     17 C         142.2636  138.0608  161.1828 C.3     1  UNL1        0.1020
     18 C         143.5563  138.8021  161.3541 C.3     1  UNL1        0.1697
     19 O         144.8563  138.1278  161.0294 O.3     1  UNL1       -0.3793
     20 H         144.6840  137.2233  160.7245 H       1  UNL1        0.2106
     21 C         143.5491  140.2177  161.8502 C.3     1  UNL1        0.2358
     22 O         142.4245  140.7033  162.7160 O.3     1  UNL1       -0.4721
     23 C         141.7366  141.9974  162.3961 C.ar    1  UNL1        0.1482
     24 C         140.6476  142.0330  161.3652 C.ar    1  UNL1        0.0376
     25 C         139.9598  143.3270  161.0454 C.ar    1  UNL1        0.0032
     26 C         140.3610  144.5854  161.7564 C.ar    1  UNL1        0.0009
     27 C         141.4500  144.5498  162.7873 C.ar    1  UNL1        0.0133
     28 C         142.1378  143.2557  163.1071 C.ar    1  UNL1        0.1023
     29 C         143.2269  143.2200  164.1380 C.1     1  UNL1        0.1035
     30 N         144.3159  143.1843  165.1689 N.1     1  UNL1       -0.1907
@<TRIPOS>BOND
     1     3     4    1
     2     4     5    1
     3     4     6    1
     4     6     7    1
     5     7     8   ar
     6     8     9   ar
     7     9    10   ar
     8    10    11   ar
     9    11    12   ar
    10    12    13   ar
    11    13    14   ar
    12    14    15   ar
    13    15    16   ar
    14     4     1    1
    15     1    17    1
    16    17    18    1
    17    18    19    1
    18    18    21    1
    19    21    22    1
    20    22    23    1
    21    23    24   ar
    22    24    25   ar
    23    25    26   ar
    24    26    27   ar
    25    27    28   ar
    26    28    29    1
    27    29    30    3
    28    16     7   ar
    29    28    23   ar
    30    15    10   ar
    31     1     2    1
    32    19    20    1
