@<TRIPOS>MOLECULE
*****
 33 37 0 0 0
SMALL
GASTEIGER

@<TRIPOS>ATOM
      1 O         137.9381  141.4787  160.4879 O.2     1  UNL1       -0.2720
      2 C         138.7917  141.1010  161.6621 C.2     1  UNL1        0.2538
      3 N         139.7223  142.1094  162.2680 N.am    1  UNL1       -0.2530
      4 C         140.5759  141.7318  163.4422 C.3     1  UNL1        0.1254
      5 C         140.4988  140.3458  164.0106 C.3     1  UNL1        0.1144
      6 C         140.4218  138.9598  164.5789 C.3     1  UNL1        0.0463
      7 C         141.2754  138.5821  165.7531 C.3     1  UNL1        0.0746
      8 N         142.2060  139.5905  166.3590 N.3     1  UNL1       -0.2722
      9 C         142.2830  140.9765  165.7907 C.3     1  UNL1        0.0746
     10 C         141.4294  141.3542  164.6164 C.3     1  UNL1        0.0463
     11 O         139.5682  139.3374  163.4046 O.3     1  UNL1       -0.3529
     12 C         138.7146  139.7150  162.2304 C.3     1  UNL1        0.1611
     13 C         138.1329  138.3326  162.2087 C.3     1  UNL1        0.0391
     14 C         137.6845  139.3508  161.2027 C.3     1  UNL1        0.0391
     15 C         139.7993  143.4954  161.6996 C.ar    1  UNL1        0.0757
     16 C         140.5617  143.7450  160.4322 C.ar    1  UNL1        0.0180
     17 C         140.6387  145.1311  159.8639 C.ar    1  UNL1        0.0219
     18 C         139.9534  146.2675  160.5629 C.ar    1  UNL1        0.0989
     19 N         139.1909  146.0179  161.8304 N.ar    1  UNL1       -0.2386
     20 C         139.1139  144.6319  162.3988 C.ar    1  UNL1        0.1662
     21 C         138.3515  144.3823  163.6662 C.3     1  UNL1        0.4360
     22 F         137.5890  144.1327  164.9337 F       1  UNL1       -0.1644
     23 F         137.2022  143.8415  162.8683 F       1  UNL1       -0.1644
     24 F         139.5008  144.9231  164.4640 F       1  UNL1       -0.1644
     25 C         143.0596  139.2129  167.5332 C.3     1  UNL1        0.0769
     26 C         142.5050  139.3047  168.9239 C.3     1  UNL1        0.0459
     27 C         141.6913  140.4977  169.3297 C.ar    1  UNL1        0.0067
     28 C         140.2229  140.3483  169.5965 C.ar    1  UNL1       -0.0020
     29 C         139.4091  141.5413  170.0023 C.ar    1  UNL1       -0.0002
     30 C         140.0639  142.8837  170.1412 C.ar    1  UNL1        0.0023
     31 C         141.5324  143.0331  169.8743 C.ar    1  UNL1        0.0293
     32 C         142.3461  141.8401  169.4686 C.ar    1  UNL1        0.1362
     33 F         143.8146  141.9895  169.2017 F       1  UNL1       -0.2045
@<TRIPOS>BOND
     1     1     2    2
     2     2     3   am
     3     3    15    1
     4    15    16   ar
     5    16    17   ar
     6    17    18   ar
     7    18    19   ar
     8    19    20   ar
     9    20    21    1
    10    21    22    1
    11    21    23    1
    12    21    24    1
    13     3     4    1
    14     4     5    1
    15     5     6    1
    16     6     7    1
    17     7     8    1
    18     8    25    1
    19    25    26    1
    20    26    27    1
    21    27    28   ar
    22    28    29   ar
    23    29    30   ar
    24    30    31   ar
    25    31    32   ar
    26    32    33    1
    27     8     9    1
    28     9    10    1
    29     5    11    1
    30    11    12    1
    31    12    13    1
    32    13    14    1
    33    12     2    1
    34    20    15   ar
    35    10     5    1
    36    14    12    1
    37    32    27   ar
@<TRIPOS>MOLECULE
*****
 33 37 0 0 0
SMALL
GASTEIGER

@<TRIPOS>ATOM
      1 O         143.9376  141.8522  161.2305 O.2     1  UNL1       -0.2720
      2 C         143.0905  141.4836  162.4122 C.2     1  UNL1        0.2538
      3 N         141.7240  142.0814  162.5710 N.am    1  UNL1       -0.2530
      4 C         140.8768  141.7128  163.7527 C.3     1  UNL1        0.1254
      5 C         141.3961  140.7464  164.7756 C.3     1  UNL1        0.1144
      6 C         141.9154  139.7799  165.7984 C.3     1  UNL1        0.0463
      7 C         141.0683  139.4113  166.9801 C.3     1  UNL1        0.0746
      8 N         139.7017  140.0092  167.1390 N.3     1  UNL1       -0.2722
      9 C         139.1824  140.9756  166.1161 C.3     1  UNL1        0.0746
     10 C         140.0296  141.3442  164.9344 C.3     1  UNL1        0.0463
     11 O         142.7627  140.1485  164.6167 O.3     1  UNL1       -0.3529
     12 C         143.6098  140.5171  163.4350 C.3     1  UNL1        0.1611
     13 C         144.6986  139.6140  163.9338 C.3     1  UNL1        0.0391
     14 C         144.8879  140.3848  162.6611 C.3     1  UNL1        0.0391
     15 C         141.2047  143.0479  161.5481 C.ar    1  UNL1        0.0757
     16 C         140.5174  142.5386  160.3160 C.ar    1  UNL1        0.0180
     17 C         139.9980  143.5050  159.2931 C.ar    1  UNL1        0.0219
     18 C         140.1660  144.9808  159.5024 C.ar    1  UNL1        0.0989
     19 N         140.8534  145.4902  160.7346 N.ar    1  UNL1       -0.2386
     20 C         141.3727  144.5237  161.7574 C.ar    1  UNL1        0.1662
     21 C         142.0600  145.0330  162.9895 C.3     1  UNL1        0.4360
     22 F         142.7473  145.5424  164.2217 F       1  UNL1       -0.1644
     23 F         140.7287  145.2179  163.6557 F       1  UNL1       -0.1644
     24 F         143.3912  144.8481  162.3234 F       1  UNL1       -0.1644
     25 C         138.8546  139.6406  168.3207 C.3     1  UNL1        0.0769
     26 C         139.0221  140.3703  169.6204 C.3     1  UNL1        0.0459
     27 C         140.2158  141.2524  169.8369 C.ar    1  UNL1        0.0067
     28 C         140.0779  142.7419  169.7253 C.ar    1  UNL1       -0.0020
     29 C         141.2717  143.6240  169.9418 C.ar    1  UNL1       -0.0002
     30 C         142.6034  143.0166  170.2698 C.ar    1  UNL1        0.0023
     31 C         142.7413  141.5272  170.3813 C.ar    1  UNL1        0.0293
     32 C         141.5476  140.6451  170.1649 C.ar    1  UNL1        0.1362
     33 F         141.6856  139.1556  170.2765 F       1  UNL1       -0.2045
@<TRIPOS>BOND
     1     1     2    2
     2     2     3   am
     3     3    15    1
     4    15    16   ar
     5    16    17   ar
     6    17    18   ar
     7    18    19   ar
     8    19    20   ar
     9    20    21    1
    10    21    22    1
    11    21    23    1
    12    21    24    1
    13     3     4    1
    14     4     5    1
    15     5     6    1
    16     6     7    1
    17     7     8    1
    18     8    25    1
    19    25    26    1
    20    26    27    1
    21    27    28   ar
    22    28    29   ar
    23    29    30   ar
    24    30    31   ar
    25    31    32   ar
    26    32    33    1
    27     8     9    1
    28     9    10    1
    29     5    11    1
    30    11    12    1
    31    12    13    1
    32    13    14    1
    33    12     2    1
    34    20    15   ar
    35    10     5    1
    36    14    12    1
    37    32    27   ar
@<TRIPOS>MOLECULE
*****
 33 37 0 0 0
SMALL
GASTEIGER

@<TRIPOS>ATOM
      1 O         139.4436  140.0514  167.2177 O.2     1  UNL1       -0.2720
      2 C         139.5832  141.0100  166.0725 C.2     1  UNL1        0.2538
      3 N         140.4070  142.2534  166.2315 N.am    1  UNL1       -0.2530
      4 C         140.5466  143.2121  165.0862 C.3     1  UNL1        0.1254
      5 C         139.8625  142.9273  163.7821 C.3     1  UNL1        0.1144
      6 C         139.1783  142.6425  162.4779 C.3     1  UNL1        0.0463
      7 C         139.3180  143.6011  161.3327 C.3     1  UNL1        0.0746
      8 N         140.1418  144.8445  161.4916 N.3     1  UNL1       -0.2722
      9 C         140.8259  145.1293  162.7958 C.3     1  UNL1        0.0746
     10 C         140.6863  144.1706  163.9410 C.3     1  UNL1        0.0463
     11 O         139.0387  141.6838  163.6231 O.3     1  UNL1       -0.3529
     12 C         138.8990  140.7252  164.7684 C.3     1  UNL1        0.1611
     13 C         138.0285  139.8429  163.9237 C.3     1  UNL1        0.0391
     14 C         138.3428  139.4538  165.3378 C.3     1  UNL1        0.0391
     15 C         141.0911  142.5382  167.5356 C.ar    1  UNL1        0.0757
     16 C         140.3215  143.1503  168.6683 C.ar    1  UNL1        0.0180
     17 C         141.0057  143.4351  169.9725 C.ar    1  UNL1        0.0219
     18 C         142.4594  143.1077  170.1440 C.ar    1  UNL1        0.0989
     19 N         143.2291  142.4956  169.0113 N.ar    1  UNL1       -0.2386
     20 C         142.5449  142.2108  167.7071 C.ar    1  UNL1        0.1662
     21 C         143.3145  141.5987  166.5744 C.3     1  UNL1        0.4360
     22 F         144.0841  140.9865  165.4417 F       1  UNL1       -0.1644
     23 F         142.8918  140.2320  167.0258 F       1  UNL1       -0.1644
     24 F         143.7372  142.9653  166.1231 F       1  UNL1       -0.1644
     25 C         140.2814  145.8031  160.3464 C.3     1  UNL1        0.0769
     26 C         140.9426  145.3611  159.0746 C.3     1  UNL1        0.0459
     27 C         140.1509  145.2918  157.8025 C.ar    1  UNL1        0.0067
     28 C         139.9115  146.5358  156.9994 C.ar    1  UNL1       -0.0020
     29 C         139.1197  146.4665  155.7272 C.ar    1  UNL1       -0.0002
     30 C         138.5674  145.1532  155.2582 C.ar    1  UNL1        0.0023
     31 C         138.8068  143.9091  156.0614 C.ar    1  UNL1        0.0293
     32 C         139.5985  143.9784  157.3335 C.ar    1  UNL1        0.1362
     33 F         139.8379  142.7343  158.1366 F       1  UNL1       -0.2045
@<TRIPOS>BOND
     1     1     2    2
     2     2     3   am
     3     3    15    1
     4    15    16   ar
     5    16    17   ar
     6    17    18   ar
     7    18    19   ar
     8    19    20   ar
     9    20    21    1
    10    21    22    1
    11    21    23    1
    12    21    24    1
    13     3     4    1
    14     4     5    1
    15     5     6    1
    16     6     7    1
    17     7     8    1
    18     8    25    1
    19    25    26    1
    20    26    27    1
    21    27    28   ar
    22    28    29   ar
    23    29    30   ar
    24    30    31   ar
    25    31    32   ar
    26    32    33    1
    27     8     9    1
    28     9    10    1
    29     5    11    1
    30    11    12    1
    31    12    13    1
    32    13    14    1
    33    12     2    1
    34    20    15   ar
    35    10     5    1
    36    14    12    1
    37    32    27   ar
@<TRIPOS>MOLECULE
*****
 33 37 0 0 0
SMALL
GASTEIGER

@<TRIPOS>ATOM
      1 O         139.5359  137.5645  165.2967 O.2     1  UNL1       -0.2720
      2 C         139.7885  138.8332  164.5374 C.2     1  UNL1        0.2538
      3 N         140.5147  139.9689  165.1951 N.am    1  UNL1       -0.2530
      4 C         140.7673  141.2377  164.4358 C.3     1  UNL1        0.1254
      5 C         140.2937  141.3706  163.0187 C.3     1  UNL1        0.1144
      6 C         139.8200  141.5036  161.6017 C.3     1  UNL1        0.0463
      7 C         140.0726  142.7722  160.8424 C.3     1  UNL1        0.0746
      8 N         140.7989  143.9081  161.5001 N.3     1  UNL1       -0.2722
      9 C         141.2725  143.7751  162.9171 C.3     1  UNL1        0.0746
     10 C         141.0199  142.5064  163.6765 C.3     1  UNL1        0.0463
     11 O         139.5674  140.2348  162.3610 O.3     1  UNL1       -0.3529
     12 C         139.3148  138.9661  163.1203 C.3     1  UNL1        0.1611
     13 C         138.6221  138.3871  161.9225 C.3     1  UNL1        0.0391
     14 C         138.7497  137.5779  163.1790 C.3     1  UNL1        0.0391
     15 C         140.9884  139.8360  166.6121 C.ar    1  UNL1        0.0757
     16 C         140.0503  140.1239  167.7466 C.ar    1  UNL1        0.0180
     17 C         140.5239  139.9909  169.1636 C.ar    1  UNL1        0.0219
     18 C         141.9357  139.5701  169.4462 C.ar    1  UNL1        0.0989
     19 N         142.8738  139.2822  168.3117 N.ar    1  UNL1       -0.2386
     20 C         142.4002  139.4152  166.8947 C.ar    1  UNL1        0.1662
     21 C         143.3383  139.1273  165.7602 C.3     1  UNL1        0.4360
     22 F         144.2764  138.8395  164.6256 F       1  UNL1       -0.1644
     23 F         143.7269  140.5754  165.7142 F       1  UNL1       -0.1644
     24 F         142.9496  137.6793  165.8063 F       1  UNL1       -0.1644
     25 C         141.0515  145.1767  160.7408 C.3     1  UNL1        0.0769
     26 C         140.2271  145.5035  159.5309 C.3     1  UNL1        0.0459
     27 C         140.8198  145.3655  158.1600 C.ar    1  UNL1        0.0067
     28 C         141.8736  144.3304  157.8991 C.ar    1  UNL1       -0.0020
     29 C         142.4663  144.1925  156.5281 C.ar    1  UNL1       -0.0002
     30 C         142.0051  145.0895  155.4179 C.ar    1  UNL1        0.0023
     31 C         140.9512  146.1246  155.6787 C.ar    1  UNL1        0.0293
     32 C         140.3586  146.2626  157.0497 C.ar    1  UNL1        0.1362
     33 F         139.3047  147.2977  157.3105 F       1  UNL1       -0.2045
@<TRIPOS>BOND
     1     1     2    2
     2     2     3   am
     3     3    15    1
     4    15    16   ar
     5    16    17   ar
     6    17    18   ar
     7    18    19   ar
     8    19    20   ar
     9    20    21    1
    10    21    22    1
    11    21    23    1
    12    21    24    1
    13     3     4    1
    14     4     5    1
    15     5     6    1
    16     6     7    1
    17     7     8    1
    18     8    25    1
    19    25    26    1
    20    26    27    1
    21    27    28   ar
    22    28    29   ar
    23    29    30   ar
    24    30    31   ar
    25    31    32   ar
    26    32    33    1
    27     8     9    1
    28     9    10    1
    29     5    11    1
    30    11    12    1
    31    12    13    1
    32    13    14    1
    33    12     2    1
    34    20    15   ar
    35    10     5    1
    36    14    12    1
    37    32    27   ar
@<TRIPOS>MOLECULE
*****
 33 37 0 0 0
SMALL
GASTEIGER

@<TRIPOS>ATOM
      1 O         141.0847  139.3309  160.6631 O.2     1  UNL1       -0.2720
      2 C         140.7115  139.4628  162.1099 C.2     1  UNL1        0.2538
      3 N         141.4949  140.3753  163.0063 N.am    1  UNL1       -0.2530
      4 C         141.1216  140.5072  164.4532 C.3     1  UNL1        0.1254
      5 C         139.9650  139.7267  165.0035 C.3     1  UNL1        0.1144
      6 C         138.8083  138.9461  165.5539 C.3     1  UNL1        0.0463
      7 C         138.4351  139.0780  167.0007 C.3     1  UNL1        0.0746
      8 N         139.2185  139.9905  167.8972 N.3     1  UNL1       -0.2722
      9 C         140.3751  140.7711  167.3468 C.3     1  UNL1        0.0746
     10 C         140.7484  140.6391  165.9000 C.3     1  UNL1        0.0463
     11 O         139.1816  138.8141  164.1070 O.3     1  UNL1       -0.3529
     12 C         139.5548  138.6822  162.6602 C.3     1  UNL1        0.1611
     13 C         138.4348  137.7048  162.4604 C.3     1  UNL1        0.0391
     14 C         139.3180  138.0793  161.3073 C.3     1  UNL1        0.0391
     15 C         142.6515  141.1559  162.4560 C.ar    1  UNL1        0.0757
     16 C         142.4104  142.2554  161.4646 C.ar    1  UNL1        0.0180
     17 C         143.5670  143.0360  160.9143 C.ar    1  UNL1        0.0219
     18 C         144.9648  142.7170  161.3553 C.ar    1  UNL1        0.0989
     19 N         145.2059  141.6174  162.3467 N.ar    1  UNL1       -0.2386
     20 C         144.0493  140.8369  162.8970 C.ar    1  UNL1        0.1662
     21 C         144.2904  139.7373  163.8884 C.3     1  UNL1        0.4360
     22 F         144.5315  138.6378  164.8798 F       1  UNL1       -0.1644
     23 F         144.3443  140.7477  164.9958 F       1  UNL1       -0.1644
     24 F         144.2366  138.7271  162.7810 F       1  UNL1       -0.1644
     25 C         138.8452  140.1224  169.3440 C.3     1  UNL1        0.0769
     26 C         139.9090  140.0735  170.4004 C.3     1  UNL1        0.0459
     27 C         141.0798  141.0085  170.3297 C.ar    1  UNL1        0.0067
     28 C         142.4651  140.4631  170.1466 C.ar    1  UNL1       -0.0020
     29 C         143.6359  141.3981  170.0759 C.ar    1  UNL1       -0.0002
     30 C         143.4215  142.8784  170.1881 C.ar    1  UNL1        0.0023
     31 C         142.0362  143.4238  170.3712 C.ar    1  UNL1        0.0293
     32 C         140.8653  142.4889  170.4419 C.ar    1  UNL1        0.1362
     33 F         139.4801  143.0342  170.6250 F       1  UNL1       -0.2045
@<TRIPOS>BOND
     1     1     2    2
     2     2     3   am
     3     3    15    1
     4    15    16   ar
     5    16    17   ar
     6    17    18   ar
     7    18    19   ar
     8    19    20   ar
     9    20    21    1
    10    21    22    1
    11    21    23    1
    12    21    24    1
    13     3     4    1
    14     4     5    1
    15     5     6    1
    16     6     7    1
    17     7     8    1
    18     8    25    1
    19    25    26    1
    20    26    27    1
    21    27    28   ar
    22    28    29   ar
    23    29    30   ar
    24    30    31   ar
    25    31    32   ar
    26    32    33    1
    27     8     9    1
    28     9    10    1
    29     5    11    1
    30    11    12    1
    31    12    13    1
    32    13    14    1
    33    12     2    1
    34    20    15   ar
    35    10     5    1
    36    14    12    1
    37    32    27   ar
@<TRIPOS>MOLECULE
*****
 33 37 0 0 0
SMALL
GASTEIGER

@<TRIPOS>ATOM
      1 O         138.7617  139.5402  168.1759 O.2     1  UNL1       -0.2720
      2 C         139.7097  139.8258  167.0492 C.2     1  UNL1        0.2538
      3 N         140.7939  140.8478  167.2221 N.am    1  UNL1       -0.2530
      4 C         141.7420  141.1335  166.0953 C.3     1  UNL1        0.1254
      5 C         141.6059  140.3970  164.7957 C.3     1  UNL1        0.1144
      6 C         141.4698  139.6606  163.4960 C.3     1  UNL1        0.0463
      7 C         142.4178  139.9462  162.3693 C.3     1  UNL1        0.0746
      8 N         143.5021  140.9683  162.5421 N.3     1  UNL1       -0.2722
      9 C         143.6382  141.7047  163.8418 C.3     1  UNL1        0.0746
     10 C         142.6901  141.4191  164.9686 C.3     1  UNL1        0.0463
     11 O         140.5216  139.3749  164.6228 O.3     1  UNL1       -0.3529
     12 C         139.5736  139.0894  165.7495 C.3     1  UNL1        0.1611
     13 C         138.8690  138.0741  164.8994 C.3     1  UNL1        0.0391
     14 C         138.4002  138.3344  166.3002 C.3     1  UNL1        0.0391
     15 C         140.9300  141.5843  168.5217 C.ar    1  UNL1        0.0757
     16 C         140.3495  142.9596  168.6689 C.ar    1  UNL1        0.0180
     17 C         140.4857  143.6960  169.9685 C.ar    1  UNL1        0.0219
     18 C         141.2023  143.0572  171.1211 C.ar    1  UNL1        0.0989
     19 N         141.7828  141.6819  170.9740 N.ar    1  UNL1       -0.2386
     20 C         141.6467  140.9454  169.6743 C.ar    1  UNL1        0.1662
     21 C         142.2271  139.5702  169.5272 C.3     1  UNL1        0.4360
     22 F         142.8076  138.1948  169.3801 F       1  UNL1       -0.1644
     23 F         141.1002  139.0074  170.3418 F       1  UNL1       -0.1644
     24 F         143.3539  140.1329  168.7126 F       1  UNL1       -0.1644
     25 C         144.4501  141.2538  161.4154 C.3     1  UNL1        0.0769
     26 C         144.3003  142.5099  160.6093 C.3     1  UNL1        0.0459
     27 C         142.9427  143.1155  160.4096 C.ar    1  UNL1        0.0067
     28 C         142.0695  142.6448  159.2845 C.ar    1  UNL1       -0.0020
     29 C         140.7118  143.2505  159.0848 C.ar    1  UNL1       -0.0002
     30 C         140.2272  144.3268  160.0104 C.ar    1  UNL1        0.0023
     31 C         141.1004  144.7976  161.1355 C.ar    1  UNL1        0.0293
     32 C         142.4581  144.1920  161.3352 C.ar    1  UNL1        0.1362
     33 F         143.3312  144.6627  162.4604 F       1  UNL1       -0.2045
@<TRIPOS>BOND
     1     1     2    2
     2     2     3   am
     3     3    15    1
     4    15    16   ar
     5    16    17   ar
     6    17    18   ar
     7    18    19   ar
     8    19    20   ar
     9    20    21    1
    10    21    22    1
    11    21    23    1
    12    21    24    1
    13     3     4    1
    14     4     5    1
    15     5     6    1
    16     6     7    1
    17     7     8    1
    18     8    25    1
    19    25    26    1
    20    26    27    1
    21    27    28   ar
    22    28    29   ar
    23    29    30   ar
    24    30    31   ar
    25    31    32   ar
    26    32    33    1
    27     8     9    1
    28     9    10    1
    29     5    11    1
    30    11    12    1
    31    12    13    1
    32    13    14    1
    33    12     2    1
    34    20    15   ar
    35    10     5    1
    36    14    12    1
    37    32    27   ar
@<TRIPOS>MOLECULE
*****
 33 37 0 0 0
SMALL
GASTEIGER

@<TRIPOS>ATOM
      1 O         143.1678  138.7544  167.6705 O.2     1  UNL1       -0.2720
      2 C         142.8242  139.8798  166.7404 C.2     1  UNL1        0.2538
      3 N         141.7819  140.8849  167.1321 N.am    1  UNL1       -0.2530
      4 C         141.4382  142.0104  166.2020 C.3     1  UNL1        0.1254
      5 C         142.1369  142.1308  164.8801 C.3     1  UNL1        0.1144
      6 C         142.8355  142.2513  163.5581 C.3     1  UNL1        0.0463
      7 C         142.4919  143.3767  162.6280 C.3     1  UNL1        0.0746
      8 N         141.4496  144.3819  163.0198 N.3     1  UNL1       -0.2722
      9 C         140.7509  144.2615  164.3417 C.3     1  UNL1        0.0746
     10 C         141.0946  143.1359  165.2718 C.3     1  UNL1        0.0463
     11 O         143.1792  141.1257  164.4883 O.3     1  UNL1       -0.3529
     12 C         143.5228  140.0002  165.4184 C.3     1  UNL1        0.1611
     13 C         144.5279  139.4895  164.4291 C.3     1  UNL1        0.0391
     14 C         144.3229  138.7702  165.7293 C.3     1  UNL1        0.0391
     15 C         141.0833  140.7645  168.4540 C.ar    1  UNL1        0.0757
     16 C         139.7199  140.1434  168.5280 C.ar    1  UNL1        0.0180
     17 C         139.0213  140.0230  169.8499 C.ar    1  UNL1        0.0219
     18 C         139.6860  140.5237  171.0978 C.ar    1  UNL1        0.0989
     19 N         141.0495  141.1448  171.0239 N.ar    1  UNL1       -0.2386
     20 C         141.7481  141.2652  169.7020 C.ar    1  UNL1        0.1662
     21 C         143.1114  141.8863  169.6281 C.3     1  UNL1        0.4360
     22 F         144.4749  142.5073  169.5541 F       1  UNL1       -0.1644
     23 F         143.7233  140.5986  170.0948 F       1  UNL1       -0.1644
     24 F         142.4996  143.1738  169.1613 F       1  UNL1       -0.1644
     25 C         141.1059  145.5073  162.0896 C.3     1  UNL1        0.0769
     26 C         140.0309  145.3271  161.0591 C.3     1  UNL1        0.0459
     27 C         139.5996  143.9474  160.6587 C.ar    1  UNL1        0.0067
     28 C         140.2367  143.2753  159.4787 C.ar    1  UNL1       -0.0020
     29 C         139.8054  141.8955  159.0782 C.ar    1  UNL1       -0.0002
     30 C         138.7370  141.1879  159.8578 C.ar    1  UNL1        0.0023
     31 C         138.0999  141.8600  161.0378 C.ar    1  UNL1        0.0293
     32 C         138.5312  143.2397  161.4383 C.ar    1  UNL1        0.1362
     33 F         137.8941  143.9117  162.6183 F       1  UNL1       -0.2045
@<TRIPOS>BOND
     1     1     2    2
     2     2     3   am
     3     3    15    1
     4    15    16   ar
     5    16    17   ar
     6    17    18   ar
     7    18    19   ar
     8    19    20   ar
     9    20    21    1
    10    21    22    1
    11    21    23    1
    12    21    24    1
    13     3     4    1
    14     4     5    1
    15     5     6    1
    16     6     7    1
    17     7     8    1
    18     8    25    1
    19    25    26    1
    20    26    27    1
    21    27    28   ar
    22    28    29   ar
    23    29    30   ar
    24    30    31   ar
    25    31    32   ar
    26    32    33    1
    27     8     9    1
    28     9    10    1
    29     5    11    1
    30    11    12    1
    31    12    13    1
    32    13    14    1
    33    12     2    1
    34    20    15   ar
    35    10     5    1
    36    14    12    1
    37    32    27   ar
@<TRIPOS>MOLECULE
*****
 33 37 0 0 0
SMALL
GASTEIGER

@<TRIPOS>ATOM
      1 O         142.8595  138.7544  165.3861 O.2     1  UNL1       -0.2720
      2 C         142.4694  139.8708  164.4634 C.2     1  UNL1        0.2538
      3 N         141.0471  140.3450  164.4192 N.am    1  UNL1       -0.2530
      4 C         140.6570  141.4614  163.4965 C.3     1  UNL1        0.1254
      5 C         141.6893  142.1036  162.6178 C.3     1  UNL1        0.1144
      6 C         142.7216  142.7458  161.7392 C.3     1  UNL1        0.0463
      7 C         142.3315  143.8622  160.8165 C.3     1  UNL1        0.0746
      8 N         140.9091  144.3364  160.7723 N.3     1  UNL1       -0.2722
      9 C         139.8768  143.6943  161.6509 C.3     1  UNL1        0.0746
     10 C         140.2669  142.5778  162.5737 C.3     1  UNL1        0.0463
     11 O         143.1117  141.6294  162.6620 O.3     1  UNL1       -0.3529
     12 C         143.5017  140.5130  163.5847 C.3     1  UNL1        0.1611
     13 C         144.9189  140.6099  163.1030 C.3     1  UNL1        0.0391
     14 C         144.5482  139.5946  164.1430 C.3     1  UNL1        0.0391
     15 C         140.0148  139.7028  165.2979 C.ar    1  UNL1        0.0757
     16 C         139.7742  140.2305  166.6812 C.ar    1  UNL1        0.0180
     17 C         138.7419  139.5883  167.5598 C.ar    1  UNL1        0.0219
     18 C         137.9502  138.4185  167.0551 C.ar    1  UNL1        0.0989
     19 N         138.1908  137.8908  165.6717 N.ar    1  UNL1       -0.2386
     20 C         139.2231  138.5330  164.7931 C.ar    1  UNL1        0.1662
     21 C         139.4638  138.0053  163.4098 C.3     1  UNL1        0.4360
     22 F         139.7044  137.4777  162.0263 F       1  UNL1       -0.1644
     23 F         138.3783  138.8956  162.8814 F       1  UNL1       -0.1644
     24 F         140.5492  137.1151  163.9382 F       1  UNL1       -0.1644
     25 C         140.5190  145.4528  159.8496 C.3     1  UNL1        0.0769
     26 C         141.0122  145.4620  158.4330 C.3     1  UNL1        0.0459
     27 C         140.0331  145.4162  157.2976 C.ar    1  UNL1        0.0067
     28 C         139.6884  146.6720  156.5533 C.ar    1  UNL1       -0.0020
     29 C         138.7093  146.6261  155.4178 C.ar    1  UNL1       -0.0002
     30 C         138.0748  145.3244  155.0268 C.ar    1  UNL1        0.0023
     31 C         138.4195  144.0685  155.7711 C.ar    1  UNL1        0.0293
     32 C         139.3986  144.1144  156.9065 C.ar    1  UNL1        0.1362
     33 F         139.7433  142.8585  157.6508 F       1  UNL1       -0.2045
@<TRIPOS>BOND
     1     1     2    2
     2     2     3   am
     3     3    15    1
     4    15    16   ar
     5    16    17   ar
     6    17    18   ar
     7    18    19   ar
     8    19    20   ar
     9    20    21    1
    10    21    22    1
    11    21    23    1
    12    21    24    1
    13     3     4    1
    14     4     5    1
    15     5     6    1
    16     6     7    1
    17     7     8    1
    18     8    25    1
    19    25    26    1
    20    26    27    1
    21    27    28   ar
    22    28    29   ar
    23    29    30   ar
    24    30    31   ar
    25    31    32   ar
    26    32    33    1
    27     8     9    1
    28     9    10    1
    29     5    11    1
    30    11    12    1
    31    12    13    1
    32    13    14    1
    33    12     2    1
    34    20    15   ar
    35    10     5    1
    36    14    12    1
    37    32    27   ar
@<TRIPOS>MOLECULE
*****
 33 37 0 0 0
SMALL
GASTEIGER

@<TRIPOS>ATOM
      1 O         139.4001  139.8947  167.5236 O.2     1  UNL1       -0.2720
      2 C         139.5280  140.8383  166.3646 C.2     1  UNL1        0.2538
      3 N         140.3917  142.0589  166.4831 N.am    1  UNL1       -0.2530
      4 C         140.5196  143.0026  165.3242 C.3     1  UNL1        0.1254
      5 C         139.7838  142.7256  164.0467 C.3     1  UNL1        0.1144
      6 C         139.0480  142.4487  162.7693 C.3     1  UNL1        0.0463
      7 C         139.1759  143.3923  161.6104 C.3     1  UNL1        0.0746
      8 N         140.0396  144.6130  161.7288 N.3     1  UNL1       -0.2722
      9 C         140.7755  144.8899  163.0063 C.3     1  UNL1        0.0746
     10 C         140.6475  143.9462  164.1652 C.3     1  UNL1        0.0463
     11 O         138.9200  141.5049  163.9283 O.3     1  UNL1       -0.3529
     12 C         138.7921  140.5613  165.0872 C.3     1  UNL1        0.1611
     13 C         137.8687  139.6967  164.2813 C.3     1  UNL1        0.0391
     14 C         138.2196  139.3118  165.6879 C.3     1  UNL1        0.0391
     15 C         141.1275  142.3359  167.7606 C.ar    1  UNL1        0.0757
     16 C         140.4951  143.1879  168.8208 C.ar    1  UNL1        0.0180
     17 C         141.2309  143.4649  170.0982 C.ar    1  UNL1        0.0219
     18 C         142.5991  142.8898  170.3155 C.ar    1  UNL1        0.0989
     19 N         143.2316  142.0377  169.2552 N.ar    1  UNL1       -0.2386
     20 C         142.4958  141.7607  167.9778 C.ar    1  UNL1        0.1662
     21 C         143.1282  140.9087  166.9176 C.3     1  UNL1        0.4360
     22 F         143.7606  140.0565  165.8574 F       1  UNL1       -0.1644
     23 F         142.6195  139.6761  167.6048 F       1  UNL1       -0.1644
     24 F         143.6368  142.1412  166.2305 F       1  UNL1       -0.1644
     25 C         140.1675  145.5566  160.5699 C.3     1  UNL1        0.0769
     26 C         141.2176  145.3227  159.5246 C.3     1  UNL1        0.0459
     27 C         141.6477  143.9244  159.1933 C.ar    1  UNL1        0.0067
     28 C         142.8929  143.3572  159.8079 C.ar    1  UNL1       -0.0020
     29 C         143.3230  141.9589  159.4766 C.ar    1  UNL1       -0.0002
     30 C         142.5079  141.1278  158.5306 C.ar    1  UNL1        0.0023
     31 C         141.2627  141.6950  157.9160 C.ar    1  UNL1        0.0293
     32 C         140.8326  143.0933  158.2473 C.ar    1  UNL1        0.1362
     33 F         139.5874  143.6605  157.6327 F       1  UNL1       -0.2045
@<TRIPOS>BOND
     1     1     2    2
     2     2     3   am
     3     3    15    1
     4    15    16   ar
     5    16    17   ar
     6    17    18   ar
     7    18    19   ar
     8    19    20   ar
     9    20    21    1
    10    21    22    1
    11    21    23    1
    12    21    24    1
    13     3     4    1
    14     4     5    1
    15     5     6    1
    16     6     7    1
    17     7     8    1
    18     8    25    1
    19    25    26    1
    20    26    27    1
    21    27    28   ar
    22    28    29   ar
    23    29    30   ar
    24    30    31   ar
    25    31    32   ar
    26    32    33    1
    27     8     9    1
    28     9    10    1
    29     5    11    1
    30    11    12    1
    31    12    13    1
    32    13    14    1
    33    12     2    1
    34    20    15   ar
    35    10     5    1
    36    14    12    1
    37    32    27   ar
