@<TRIPOS>MOLECULE
*****
 27 30 0 0 0
SMALL
GASTEIGER

@<TRIPOS>ATOM
      1 C         139.1101  139.4474  166.6995 C.3     1  UNL1        0.3267
      2 N         138.6308  139.3924  168.1198 N.2     1  UNL1       -0.0293
      3 C         139.4098  140.0804  169.2013 C.2     1  UNL1        0.3199
      4 N         138.9305  140.0254  170.6217 N.pl3   1  UNL1       -0.2463
      5 C         140.6682  140.8233  168.8627 C.ar    1  UNL1        0.1156
      6 C         141.4472  141.5112  169.9442 C.ar    1  UNL1        0.0104
      7 C         142.7055  142.2541  169.6055 C.ar    1  UNL1        0.0004
      8 C         143.1847  142.3091  168.1852 C.ar    1  UNL1        0.0031
      9 C         142.4057  141.6212  167.1036 C.ar    1  UNL1        0.0373
     10 C         141.1475  140.8783  167.4423 C.ar    1  UNL1        0.1501
     11 O         140.3684  140.1903  166.3607 O.3     1  UNL1       -0.4394
     12 H         138.1047  139.5378  170.8440 H       1  UNL1        0.2884
     13 H         139.4418  140.4769  171.3315 H       1  UNL1        0.2884
     14 C         139.1582  139.2165  165.2182 C.ar    1  UNL1        0.0612
     15 C         139.0753  137.8215  164.6734 C.ar    1  UNL1        0.0034
     16 C         139.1233  137.5906  163.1921 C.ar    1  UNL1       -0.0001
     17 C         139.2543  138.7548  162.2554 C.ar    1  UNL1        0.0001
     18 C         139.3373  140.1500  162.8001 C.ar    1  UNL1        0.0029
     19 C         139.2892  140.3809  164.2815 C.ar    1  UNL1        0.0035
     20 C         139.4683  141.3143  161.8635 C.ar    1  UNL1        0.0384
     21 C         138.2397  141.9769  161.3144 C.ar    1  UNL1        0.1022
     22 N         138.3707  143.1412  160.3778 N.ar    1  UNL1       -0.2224
     23 C         139.7301  143.6429  159.9903 C.ar    1  UNL1        0.1989
     24 N         140.9587  142.9802  160.5394 N.ar    1  UNL1       -0.2224
     25 C         140.8277  141.8159  161.4760 C.ar    1  UNL1        0.1022
     26 C         137.1576  138.0735  167.7243 C.3     1  UNL1        0.0090
     27 C         137.8685  138.6243  166.5237 C.3     1  UNL1        0.0976
@<TRIPOS>BOND
     1    26    27    1
     2    27     1    1
     3     1    14    1
     4    14    15   ar
     5    15    16   ar
     6    16    17   ar
     7    17    18   ar
     8    18    20    1
     9    20    21   ar
    10    21    22   ar
    11    22    23   ar
    12    23    24   ar
    13    24    25   ar
    14    18    19   ar
    15     1     2    1
    16     2     3    2
    17     3     4    1
    18     3     5    1
    19     5     6   ar
    20     6     7   ar
    21     7     8   ar
    22     8     9   ar
    23     9    10   ar
    24    10    11    1
    25    11     1    1
    26    19    14   ar
    27    10     5   ar
    28    25    20   ar
    29     4    12    1
    30     4    13    1
@<TRIPOS>MOLECULE
*****
 27 30 0 0 0
SMALL
GASTEIGER

@<TRIPOS>ATOM
      1 C         141.6017  138.4595  164.0607 C.3     1  UNL1        0.3267
      2 N         142.9682  138.2491  163.4789 N.2     1  UNL1       -0.0293
      3 C         143.1491  138.1920  161.9910 C.2     1  UNL1        0.3199
      4 N         144.5156  137.9816  161.4092 N.pl3   1  UNL1       -0.2463
      5 C         141.9636  138.3454  161.0848 C.ar    1  UNL1        0.1156
      6 C         142.1446  138.2883  159.5969 C.ar    1  UNL1        0.0104
      7 C         140.9592  138.4417  158.6908 C.ar    1  UNL1        0.0004
      8 C         139.5927  138.6522  159.2726 C.ar    1  UNL1        0.0031
      9 C         139.4117  138.7092  160.7605 C.ar    1  UNL1        0.0373
     10 C         140.5972  138.5558  161.6666 C.ar    1  UNL1        0.1501
     11 O         140.4162  138.6129  163.1546 O.3     1  UNL1       -0.4394
     12 H         145.2937  137.8809  162.0039 H       1  UNL1        0.2884
     13 H         144.6344  137.9441  160.4326 H       1  UNL1        0.2884
     14 C         140.5160  138.6383  165.0801 C.ar    1  UNL1        0.0612
     15 C         139.2763  137.7968  165.0110 C.ar    1  UNL1        0.0034
     16 C         138.1906  137.9755  166.0304 C.ar    1  UNL1       -0.0001
     17 C         138.3446  138.9958  167.1191 C.ar    1  UNL1        0.0001
     18 C         139.5843  139.8373  167.1884 C.ar    1  UNL1        0.0029
     19 C         140.6701  139.6586  166.1689 C.ar    1  UNL1        0.0035
     20 C         139.7385  140.8576  168.2770 C.ar    1  UNL1        0.0384
     21 C         140.3985  142.1725  167.9845 C.ar    1  UNL1        0.1022
     22 N         140.5526  143.1928  169.0732 N.ar    1  UNL1       -0.2224
     23 C         140.0468  142.8984  170.4543 C.ar    1  UNL1        0.1989
     24 N         139.3868  141.5835  170.7468 N.ar    1  UNL1       -0.2224
     25 C         139.2327  140.5632  169.6581 C.ar    1  UNL1        0.1022
     26 C         143.8492  138.7916  165.3211 C.3     1  UNL1        0.0090
     27 C         142.4102  138.3682  165.3209 C.3     1  UNL1        0.0976
@<TRIPOS>BOND
     1    26    27    1
     2    27     1    1
     3     1    14    1
     4    14    15   ar
     5    15    16   ar
     6    16    17   ar
     7    17    18   ar
     8    18    20    1
     9    20    21   ar
    10    21    22   ar
    11    22    23   ar
    12    23    24   ar
    13    24    25   ar
    14    18    19   ar
    15     1     2    1
    16     2     3    2
    17     3     4    1
    18     3     5    1
    19     5     6   ar
    20     6     7   ar
    21     7     8   ar
    22     8     9   ar
    23     9    10   ar
    24    10    11    1
    25    11     1    1
    26    19    14   ar
    27    10     5   ar
    28    25    20   ar
    29     4    12    1
    30     4    13    1
@<TRIPOS>MOLECULE
*****
 27 30 0 0 0
SMALL
GASTEIGER

@<TRIPOS>ATOM
      1 C         139.9335  139.6905  164.4586 C.3     1  UNL1        0.3267
      2 N         138.9302  139.3758  163.3889 N.2     1  UNL1       -0.0293
      3 C         138.2101  140.4878  162.6855 C.2     1  UNL1        0.3199
      4 N         137.2068  140.1731  161.6158 N.pl3   1  UNL1       -0.2463
      5 C         138.4933  141.9146  163.0518 C.ar    1  UNL1        0.1156
      6 C         137.7731  143.0266  162.3484 C.ar    1  UNL1        0.0104
      7 C         138.0563  144.4533  162.7148 C.ar    1  UNL1        0.0004
      8 C         139.0596  144.7680  163.7845 C.ar    1  UNL1        0.0031
      9 C         139.7798  143.6560  164.4879 C.ar    1  UNL1        0.0373
     10 C         139.4966  142.2293  164.1215 C.ar    1  UNL1        0.1501
     11 O         140.2167  141.1172  164.8249 O.3     1  UNL1       -0.4394
     12 H         137.0209  139.2366  161.3753 H       1  UNL1        0.2884
     13 H         136.7341  140.9029  161.1541 H       1  UNL1        0.2884
     14 C         140.9626  139.4849  165.5303 C.ar    1  UNL1        0.0612
     15 C         142.1448  138.5978  165.2748 C.ar    1  UNL1        0.0034
     16 C         143.1739  138.3922  166.3465 C.ar    1  UNL1       -0.0001
     17 C         143.0208  139.0738  167.6739 C.ar    1  UNL1        0.0001
     18 C         141.8386  139.9609  167.9296 C.ar    1  UNL1        0.0029
     19 C         140.8095  140.1665  166.8579 C.ar    1  UNL1        0.0035
     20 C         141.6854  140.6424  169.2570 C.ar    1  UNL1        0.0384
     21 C         140.7658  140.0677  170.2934 C.ar    1  UNL1        0.1022
     22 N         140.6126  140.7492  171.6208 N.ar    1  UNL1       -0.2224
     23 C         141.3789  142.0054  171.9119 C.ar    1  UNL1        0.1989
     24 N         142.2985  142.5802  170.8755 N.ar    1  UNL1       -0.2224
     25 C         142.4517  141.8986  169.5481 C.ar    1  UNL1        0.1022
     26 C         138.8776  137.3877  165.0350 C.3     1  UNL1        0.0090
     27 C         140.0077  138.1923  164.4645 C.3     1  UNL1        0.0976
@<TRIPOS>BOND
     1    26    27    1
     2    27     1    1
     3     1    14    1
     4    14    15   ar
     5    15    16   ar
     6    16    17   ar
     7    17    18   ar
     8    18    20    1
     9    20    21   ar
    10    21    22   ar
    11    22    23   ar
    12    23    24   ar
    13    24    25   ar
    14    18    19   ar
    15     1     2    1
    16     2     3    2
    17     3     4    1
    18     3     5    1
    19     5     6   ar
    20     6     7   ar
    21     7     8   ar
    22     8     9   ar
    23     9    10   ar
    24    10    11    1
    25    11     1    1
    26    19    14   ar
    27    10     5   ar
    28    25    20   ar
    29     4    12    1
    30     4    13    1
@<TRIPOS>MOLECULE
*****
 27 30 0 0 0
SMALL
GASTEIGER

@<TRIPOS>ATOM
      1 C         139.8931  139.4359  166.8191 C.3     1  UNL1        0.3267
      2 N         138.8909  139.4820  167.9343 N.2     1  UNL1       -0.0293
      3 C         139.2244  140.1907  169.2135 C.2     1  UNL1        0.3199
      4 N         138.2223  140.2368  170.3287 N.pl3   1  UNL1       -0.2463
      5 C         140.5601  140.8535  169.3776 C.ar    1  UNL1        0.1156
      6 C         140.8935  141.5623  170.6568 C.ar    1  UNL1        0.0104
      7 C         142.2291  142.2250  170.8208 C.ar    1  UNL1        0.0004
      8 C         143.2312  142.1789  169.7056 C.ar    1  UNL1        0.0031
      9 C         142.8978  141.4701  168.4264 C.ar    1  UNL1        0.0373
     10 C         141.5622  140.8074  168.2624 C.ar    1  UNL1        0.1501
     11 O         141.2287  140.0986  166.9832 O.3     1  UNL1       -0.4394
     12 H         137.3456  139.8018  170.2210 H       1  UNL1        0.2884
     13 H         138.4411  140.7020  171.1683 H       1  UNL1        0.2884
     14 C         140.5052  139.1218  165.4863 C.ar    1  UNL1        0.0612
     15 C         140.2302  137.8029  164.8267 C.ar    1  UNL1        0.0034
     16 C         140.8423  137.4888  163.4938 C.ar    1  UNL1       -0.0001
     17 C         141.7295  138.4936  162.8204 C.ar    1  UNL1        0.0001
     18 C         142.0045  139.8124  163.4799 C.ar    1  UNL1        0.0029
     19 C         141.3923  140.1266  164.8128 C.ar    1  UNL1        0.0035
     20 C         142.8916  140.8172  162.8065 C.ar    1  UNL1        0.0384
     21 C         142.2903  142.0088  162.1218 C.ar    1  UNL1        0.1022
     22 N         143.1773  143.0136  161.4485 N.ar    1  UNL1       -0.2224
     23 C         144.6656  142.8270  161.4598 C.ar    1  UNL1        0.1989
     24 N         145.2669  141.6354  162.1445 N.ar    1  UNL1       -0.2224
     25 C         144.3798  140.6306  162.8179 C.ar    1  UNL1        0.1022
     26 C         137.5702  138.2880  167.0101 C.3     1  UNL1        0.0090
     27 C         138.7700  138.6641  166.1922 C.3     1  UNL1        0.0976
@<TRIPOS>BOND
     1    26    27    1
     2    27     1    1
     3     1    14    1
     4    14    15   ar
     5    15    16   ar
     6    16    17   ar
     7    17    18   ar
     8    18    20    1
     9    20    21   ar
    10    21    22   ar
    11    22    23   ar
    12    23    24   ar
    13    24    25   ar
    14    18    19   ar
    15     1     2    1
    16     2     3    2
    17     3     4    1
    18     3     5    1
    19     5     6   ar
    20     6     7   ar
    21     7     8   ar
    22     8     9   ar
    23     9    10   ar
    24    10    11    1
    25    11     1    1
    26    19    14   ar
    27    10     5   ar
    28    25    20   ar
    29     4    12    1
    30     4    13    1
@<TRIPOS>MOLECULE
*****
 27 30 0 0 0
SMALL
GASTEIGER

@<TRIPOS>ATOM
      1 C         139.1637  139.9142  166.8646 C.3     1  UNL1        0.3267
      2 N         138.7040  139.5821  168.2532 N.2     1  UNL1       -0.0293
      3 C         139.5085  140.0306  169.4370 C.2     1  UNL1        0.3199
      4 N         139.0488  139.6986  170.8257 N.pl3   1  UNL1       -0.2463
      5 C         140.7730  140.8113  169.2322 C.ar    1  UNL1        0.1156
      6 C         141.5775  141.2598  170.4160 C.ar    1  UNL1        0.0104
      7 C         142.8419  142.0405  170.2112 C.ar    1  UNL1        0.0004
      8 C         143.3017  142.3725  168.8225 C.ar    1  UNL1        0.0031
      9 C         142.4971  141.9240  167.6387 C.ar    1  UNL1        0.0373
     10 C         141.2327  141.1434  167.8436 C.ar    1  UNL1        0.1501
     11 O         140.4281  140.6948  166.6597 O.3     1  UNL1       -0.4394
     12 H         138.2189  139.1862  170.9601 H       1  UNL1        0.2884
     13 H         139.5768  139.9930  171.6026 H       1  UNL1        0.2884
     14 C         139.1872  139.9835  165.3664 C.ar    1  UNL1        0.0612
     15 C         138.0261  140.5763  164.6247 C.ar    1  UNL1        0.0034
     16 C         138.0496  140.6456  163.1265 C.ar    1  UNL1       -0.0001
     17 C         139.2343  140.1222  162.3700 C.ar    1  UNL1        0.0001
     18 C         140.3956  139.5294  163.1116 C.ar    1  UNL1        0.0029
     19 C         140.3721  139.4600  164.6098 C.ar    1  UNL1        0.0035
     20 C         141.5803  139.0059  162.3551 C.ar    1  UNL1        0.0384
     21 C         141.3774  138.2256  161.0902 C.ar    1  UNL1        0.1022
     22 N         142.5621  137.7021  160.3337 N.ar    1  UNL1       -0.2224
     23 C         143.9498  137.9588  160.8421 C.ar    1  UNL1        0.1989
     24 N         144.1527  138.7391  162.1070 N.ar    1  UNL1       -0.2224
     25 C         142.9680  139.2626  162.8635 C.ar    1  UNL1        0.1022
     26 C         137.8506  137.6745  166.7666 C.3     1  UNL1        0.0090
     27 C         137.9075  139.1576  166.5491 C.3     1  UNL1        0.0976
@<TRIPOS>BOND
     1    26    27    1
     2    27     1    1
     3     1    14    1
     4    14    15   ar
     5    15    16   ar
     6    16    17   ar
     7    17    18   ar
     8    18    20    1
     9    20    21   ar
    10    21    22   ar
    11    22    23   ar
    12    23    24   ar
    13    24    25   ar
    14    18    19   ar
    15     1     2    1
    16     2     3    2
    17     3     4    1
    18     3     5    1
    19     5     6   ar
    20     6     7   ar
    21     7     8   ar
    22     8     9   ar
    23     9    10   ar
    24    10    11    1
    25    11     1    1
    26    19    14   ar
    27    10     5   ar
    28    25    20   ar
    29     4    12    1
    30     4    13    1
@<TRIPOS>MOLECULE
*****
 27 30 0 0 0
SMALL
GASTEIGER

@<TRIPOS>ATOM
      1 C         140.4830  142.5658  163.8950 C.3     1  UNL1        0.3267
      2 N         139.6428  143.1233  162.7844 N.2     1  UNL1       -0.0293
      3 C         138.7758  142.2103  161.9691 C.2     1  UNL1        0.3199
      4 N         137.9356  142.7678  160.8586 N.pl3   1  UNL1       -0.2463
      5 C         138.7489  140.7399  162.2643 C.ar    1  UNL1        0.1156
      6 C         137.8819  139.8269  161.4490 C.ar    1  UNL1        0.0104
      7 C         137.8551  138.3565  161.7442 C.ar    1  UNL1        0.0004
      8 C         138.6953  137.7991  162.8548 C.ar    1  UNL1        0.0031
      9 C         139.5623  138.7120  163.6701 C.ar    1  UNL1        0.0373
     10 C         139.5891  140.1824  163.3749 C.ar    1  UNL1        0.1501
     11 O         140.4562  141.0954  164.1902 O.3     1  UNL1       -0.4394
     12 H         137.9532  143.7329  160.6648 H       1  UNL1        0.2884
     13 H         137.3665  142.1686  160.3234 H       1  UNL1        0.2884
     14 C         141.4490  142.5126  165.0412 C.ar    1  UNL1        0.0612
     15 C         142.8790  142.9165  164.8364 C.ar    1  UNL1        0.0034
     16 C         143.8449  142.8633  165.9826 C.ar    1  UNL1       -0.0001
     17 C         143.3810  142.4062  167.3338 C.ar    1  UNL1        0.0001
     18 C         141.9511  142.0023  167.5388 C.ar    1  UNL1        0.0029
     19 C         140.9850  142.0555  166.3925 C.ar    1  UNL1        0.0035
     20 C         141.4870  141.5452  168.8900 C.ar    1  UNL1        0.0384
     21 C         140.7845  140.2279  169.0356 C.ar    1  UNL1        0.1022
     22 N         140.3205  139.7707  170.3867 N.ar    1  UNL1       -0.2224
     23 C         140.5589  140.6308  171.5923 C.ar    1  UNL1        0.1989
     24 N         141.2614  141.9481  171.4467 N.ar    1  UNL1       -0.2224
     25 C         141.7255  142.4052  170.0955 C.ar    1  UNL1        0.1022
     26 C         139.7775  145.0413  164.2478 C.3     1  UNL1        0.0090
     27 C         140.8453  144.0178  163.9978 C.3     1  UNL1        0.0976
@<TRIPOS>BOND
     1    26    27    1
     2    27     1    1
     3     1    14    1
     4    14    15   ar
     5    15    16   ar
     6    16    17   ar
     7    17    18   ar
     8    18    20    1
     9    20    21   ar
    10    21    22   ar
    11    22    23   ar
    12    23    24   ar
    13    24    25   ar
    14    18    19   ar
    15     1     2    1
    16     2     3    2
    17     3     4    1
    18     3     5    1
    19     5     6   ar
    20     6     7   ar
    21     7     8   ar
    22     8     9   ar
    23     9    10   ar
    24    10    11    1
    25    11     1    1
    26    19    14   ar
    27    10     5   ar
    28    25    20   ar
    29     4    12    1
    30     4    13    1
@<TRIPOS>MOLECULE
*****
 27 30 0 0 0
SMALL
GASTEIGER

@<TRIPOS>ATOM
      1 C         141.3329  139.8133  165.5226 C.3     1  UNL1        0.3267
      2 N         140.0495  139.1982  165.9964 N.2     1  UNL1       -0.0293
      3 C         139.4468  139.6310  167.2999 C.2     1  UNL1        0.3199
      4 N         138.1634  139.0158  167.7738 N.pl3   1  UNL1       -0.2463
      5 C         140.1274  140.6789  168.1298 C.ar    1  UNL1        0.1156
      6 C         139.5247  141.1117  169.4334 C.ar    1  UNL1        0.0104
      7 C         140.2053  142.1596  170.2631 C.ar    1  UNL1        0.0004
      8 C         141.4887  142.7747  169.7893 C.ar    1  UNL1        0.0031
      9 C         142.0915  142.3420  168.4858 C.ar    1  UNL1        0.0373
     10 C         141.4108  141.2941  167.6560 C.ar    1  UNL1        0.1501
     11 O         142.0136  140.8613  166.3523 O.3     1  UNL1       -0.4394
     12 H         137.7167  138.3280  167.2291 H       1  UNL1        0.2884
     13 H         137.7678  139.2999  168.6294 H       1  UNL1        0.2884
     14 C         142.5235  140.0990  164.6561 C.ar    1  UNL1        0.0612
     15 C         143.8817  139.6087  165.0622 C.ar    1  UNL1        0.0034
     16 C         145.0723  139.8944  164.1957 C.ar    1  UNL1       -0.0001
     17 C         144.9047  140.6704  162.9230 C.ar    1  UNL1        0.0001
     18 C         143.5466  141.1607  162.5168 C.ar    1  UNL1        0.0029
     19 C         142.3560  140.8751  163.3833 C.ar    1  UNL1        0.0035
     20 C         143.3790  141.9367  161.2442 C.ar    1  UNL1        0.0384
     21 C         143.8459  141.3537  159.9433 C.ar    1  UNL1        0.1022
     22 N         143.6783  142.1296  158.6706 N.ar    1  UNL1       -0.2224
     23 C         143.0439  143.4886  158.6987 C.ar    1  UNL1        0.1989
     24 N         142.5770  144.0716  159.9996 N.ar    1  UNL1       -0.2224
     25 C         142.7447  143.2956  161.2722 C.ar    1  UNL1        0.1022
     26 C         140.9776  137.3904  164.6547 C.3     1  UNL1        0.0090
     27 C         141.0658  138.8646  164.3919 C.3     1  UNL1        0.0976
@<TRIPOS>BOND
     1    26    27    1
     2    27     1    1
     3     1    14    1
     4    14    15   ar
     5    15    16   ar
     6    16    17   ar
     7    17    18   ar
     8    18    20    1
     9    20    21   ar
    10    21    22   ar
    11    22    23   ar
    12    23    24   ar
    13    24    25   ar
    14    18    19   ar
    15     1     2    1
    16     2     3    2
    17     3     4    1
    18     3     5    1
    19     5     6   ar
    20     6     7   ar
    21     7     8   ar
    22     8     9   ar
    23     9    10   ar
    24    10    11    1
    25    11     1    1
    26    19    14   ar
    27    10     5   ar
    28    25    20   ar
    29     4    12    1
    30     4    13    1
@<TRIPOS>MOLECULE
*****
 27 30 0 0 0
SMALL
GASTEIGER

@<TRIPOS>ATOM
      1 C         142.7460  141.3478  166.2484 C.3     1  UNL1        0.3267
      2 N         143.0924  140.1113  167.0236 N.2     1  UNL1       -0.0293
      3 C         142.5948  139.9429  168.4286 C.2     1  UNL1        0.3199
      4 N         142.9412  138.7063  169.2038 N.pl3   1  UNL1       -0.2463
      5 C         141.7509  141.0111  169.0585 C.ar    1  UNL1        0.1156
      6 C         141.2533  140.8428  170.4635 C.ar    1  UNL1        0.0104
      7 C         140.4094  141.9110  171.0933 C.ar    1  UNL1        0.0004
      8 C         140.0631  143.1475  170.3181 C.ar    1  UNL1        0.0031
      9 C         140.5606  143.3159  168.9131 C.ar    1  UNL1        0.0373
     10 C         141.4045  142.2477  168.2833 C.ar    1  UNL1        0.1501
     11 O         141.9021  142.4160  166.8782 O.3     1  UNL1       -0.4394
     12 H         143.4951  138.0052  168.7904 H       1  UNL1        0.2884
     13 H         142.6146  138.5958  170.1259 H       1  UNL1        0.2884
     14 C         142.6854  142.3321  165.1182 C.ar    1  UNL1        0.0612
     15 C         143.6295  143.4973  165.0869 C.ar    1  UNL1        0.0034
     16 C         143.5689  144.4816  163.9567 C.ar    1  UNL1       -0.0001
     17 C         142.5642  144.3007  162.8577 C.ar    1  UNL1        0.0001
     18 C         141.6201  143.1356  162.8889 C.ar    1  UNL1        0.0029
     19 C         141.6806  142.1512  164.0191 C.ar    1  UNL1        0.0035
     20 C         140.6153  142.9547  161.7899 C.ar    1  UNL1        0.0384
     21 C         141.0660  142.5258  160.4249 C.ar    1  UNL1        0.1022
     22 N         140.0612  142.3449  159.3260 N.ar    1  UNL1       -0.2224
     23 C         138.6060  142.5928  159.5919 C.ar    1  UNL1        0.1989
     24 N         138.1553  143.0216  160.9568 N.ar    1  UNL1       -0.2224
     25 C         139.1601  143.2026  162.0558 C.ar    1  UNL1        0.1022
     26 C         143.6284  139.1226  165.2385 C.3     1  UNL1        0.0090
     27 C         143.5689  140.6214  165.2261 C.3     1  UNL1        0.0976
@<TRIPOS>BOND
     1    26    27    1
     2    27     1    1
     3     1    14    1
     4    14    15   ar
     5    15    16   ar
     6    16    17   ar
     7    17    18   ar
     8    18    20    1
     9    20    21   ar
    10    21    22   ar
    11    22    23   ar
    12    23    24   ar
    13    24    25   ar
    14    18    19   ar
    15     1     2    1
    16     2     3    2
    17     3     4    1
    18     3     5    1
    19     5     6   ar
    20     6     7   ar
    21     7     8   ar
    22     8     9   ar
    23     9    10   ar
    24    10    11    1
    25    11     1    1
    26    19    14   ar
    27    10     5   ar
    28    25    20   ar
    29     4    12    1
    30     4    13    1
@<TRIPOS>MOLECULE
*****
 27 30 0 0 0
SMALL
GASTEIGER

@<TRIPOS>ATOM
      1 C         140.6617  140.5456  163.5434 C.3     1  UNL1        0.3267
      2 N         141.5070  140.4771  162.3061 N.2     1  UNL1       -0.0293
      3 C         141.6572  141.6871  161.4325 C.2     1  UNL1        0.3199
      4 N         142.5025  141.6187  160.1953 N.pl3   1  UNL1       -0.2463
      5 C         140.9621  142.9657  161.7961 C.ar    1  UNL1        0.1156
      6 C         141.1123  144.1757  160.9225 C.ar    1  UNL1        0.0104
      7 C         140.4172  145.4542  161.2862 C.ar    1  UNL1        0.0004
      8 C         139.5719  145.5227  162.5234 C.ar    1  UNL1        0.0031
      9 C         139.4217  144.3126  163.3970 C.ar    1  UNL1        0.0373
     10 C         140.1168  143.0342  163.0334 C.ar    1  UNL1        0.1501
     11 O         139.9666  141.8241  163.9070 O.3     1  UNL1       -0.4394
     12 H         142.9587  140.7795  159.9566 H       1  UNL1        0.2884
     13 H         142.6010  142.4129  159.6219 H       1  UNL1        0.2884
     14 C         139.9750  140.1185  164.8067 C.ar    1  UNL1        0.0612
     15 C         138.6921  139.3443  164.7382 C.ar    1  UNL1        0.0034
     16 C         138.0054  138.9173  166.0015 C.ar    1  UNL1       -0.0001
     17 C         138.6016  139.2644  167.3334 C.ar    1  UNL1        0.0001
     18 C         139.8845  140.0386  167.4021 C.ar    1  UNL1        0.0029
     19 C         140.5713  140.4657  166.1387 C.ar    1  UNL1        0.0035
     20 C         140.4808  140.3857  168.7339 C.ar    1  UNL1        0.0384
     21 C         141.8578  139.9069  169.0868 C.ar    1  UNL1        0.1022
     22 N         142.4541  140.2541  170.4187 N.ar    1  UNL1       -0.2224
     23 C         141.6735  141.0800  171.3976 C.ar    1  UNL1        0.1989
     24 N         140.2964  141.5588  171.0448 N.ar    1  UNL1       -0.2224
     25 C         139.7001  141.2116  169.7129 C.ar    1  UNL1        0.1022
     26 C         142.5783  138.7918  163.5099 C.3     1  UNL1        0.0090
     27 C         141.1183  139.1187  163.6185 C.3     1  UNL1        0.0976
@<TRIPOS>BOND
     1    26    27    1
     2    27     1    1
     3     1    14    1
     4    14    15   ar
     5    15    16   ar
     6    16    17   ar
     7    17    18   ar
     8    18    20    1
     9    20    21   ar
    10    21    22   ar
    11    22    23   ar
    12    23    24   ar
    13    24    25   ar
    14    18    19   ar
    15     1     2    1
    16     2     3    2
    17     3     4    1
    18     3     5    1
    19     5     6   ar
    20     6     7   ar
    21     7     8   ar
    22     8     9   ar
    23     9    10   ar
    24    10    11    1
    25    11     1    1
    26    19    14   ar
    27    10     5   ar
    28    25    20   ar
    29     4    12    1
    30     4    13    1
