@<TRIPOS>MOLECULE
*****
 27 29 0 0 0
SMALL
GASTEIGER

@<TRIPOS>ATOM
      1 C         138.4856  138.8932  165.8160 C.ar    1  UNL1        0.1345
      2 C         137.9498  140.0547  165.0324 C.ar    1  UNL1        0.0496
      3 C         137.9393  140.0070  163.5332 C.ar    1  UNL1        0.0597
      4 C         138.4645  138.7978  162.8176 C.ar    1  UNL1        0.0899
      5 CL        138.4540  138.7502  161.3183 Cl      1  UNL1       -0.0793
      6 C         139.0003  137.6364  163.6011 C.ar    1  UNL1        0.1129
      7 N         139.0108  137.6840  165.1004 N.ar    1  UNL1       -0.2281
      8 N         138.4961  138.9409  167.3152 N.pl3   1  UNL1       -0.2821
      9 H         137.9013  138.3495  167.8307 H       1  UNL1        0.1551
     10 C         141.2464  141.7870  169.4566 C.ar    1  UNL1        0.1683
     11 C         140.0702  141.1964  170.1761 C.ar    1  UNL1        0.1299
     12 N         139.1534  140.2477  169.4623 N.ar    1  UNL1       -0.2251
     13 C         139.4129  139.8896  168.0290 C.ar    1  UNL1        0.1527
     14 C         140.5891  140.4802  167.3095 C.ar    1  UNL1        0.1340
     15 N         141.5058  141.4289  168.0233 N.ar    1  UNL1       -0.2290
     16 N         143.0799  143.6844  170.8841 N.1     1  UNL1       -0.1892
     17 C         142.1632  142.7357  170.1703 C.1     1  UNL1        0.1214
     18 N         137.4036  141.1685  162.7496 N.pl3   1  UNL1       -0.3299
     19 H         137.0931  141.0370  161.8246 H       1  UNL1        0.1469
     20 C         137.3409  142.5303  163.3753 C.3     1  UNL1        0.1185
     21 C         138.3806  143.5582  163.0402 C.3     1  UNL1        0.1503
     22 C         139.0452  144.3376  164.1360 C.3     1  UNL1        0.1003
     23 N         140.0849  145.3655  163.8010 N.3     1  UNL1       -0.2933
     24 C         140.4601  145.6141  162.3700 C.3     1  UNL1        0.1011
     25 C         139.7954  144.8347  161.2742 C.3     1  UNL1        0.1592
     26 O         138.7557  143.8067  161.6093 O.3     1  UNL1       -0.3516
     27 H         140.9389  145.0893  164.2855 H       1  UNL1        0.1234
@<TRIPOS>BOND
     1    16    17    3
     2    17    10    1
     3    10    11   ar
     4    11    12   ar
     5    12    13   ar
     6    13     8    1
     7     8     1    1
     8     1     2   ar
     9     2     3   ar
    10     3    18    1
    11    18    20    1
    12    21    20    1
    13    21    22    1
    14    22    23    1
    15    23    24    1
    16    24    25    1
    17    25    26    1
    18     3     4   ar
    19     4     5    1
    20     4     6   ar
    21     6     7   ar
    22    13    14   ar
    23    14    15   ar
    24    15    10   ar
    25     7     1   ar
    26    26    21    1
    27     8     9    1
    28    18    19    1
    29    23    27    1
@<TRIPOS>MOLECULE
*****
 27 29 0 0 0
SMALL
GASTEIGER

@<TRIPOS>ATOM
      1 C         143.0748  138.6905  165.5970 C.ar    1  UNL1        0.1345
      2 C         141.8634  138.0810  164.9557 C.ar    1  UNL1        0.0496
      3 C         141.7996  137.9309  163.4647 C.ar    1  UNL1        0.0597
      4 C         142.9471  138.3902  162.6148 C.ar    1  UNL1        0.0899
      5 CL        142.8832  138.2400  161.1237 Cl      1  UNL1       -0.0793
      6 C         144.1585  138.9996  163.2560 C.ar    1  UNL1        0.1129
      7 N         144.2224  139.1497  164.7471 N.ar    1  UNL1       -0.2281
      8 N         143.1387  138.8406  167.0881 N.pl3   1  UNL1       -0.2821
      9 H         143.5811  138.1508  167.6338 H       1  UNL1        0.1551
     10 C         141.3082  142.4437  169.0672 C.ar    1  UNL1        0.1683
     11 C         142.3164  141.6138  169.8052 C.ar    1  UNL1        0.1299
     12 N         142.9265  140.4127  169.1456 N.ar    1  UNL1       -0.2251
     13 C         142.5285  140.0416  167.7478 C.ar    1  UNL1        0.1527
     14 C         141.5204  140.8716  167.0097 C.ar    1  UNL1        0.1340
     15 N         140.9102  142.0726  167.6694 N.ar    1  UNL1       -0.2290
     16 N         140.0879  144.8458  170.3866 N.1     1  UNL1       -0.1892
     17 C         140.6981  143.6448  169.7269 C.1     1  UNL1        0.1214
     18 N         140.5882  137.3215  162.8234 N.pl3   1  UNL1       -0.3299
     19 H         140.6857  136.7628  162.0186 H       1  UNL1        0.1469
     20 C         139.2282  137.5632  163.4083 C.3     1  UNL1        0.1185
     21 C         138.6027  138.9233  163.3151 C.3     1  UNL1        0.1503
     22 C         137.8192  139.3065  162.0948 C.3     1  UNL1        0.1003
     23 N         137.1936  140.6666  162.0016 N.3     1  UNL1       -0.2933
     24 C         137.3516  141.6437  163.1288 C.3     1  UNL1        0.1011
     25 C         138.1351  141.2605  164.3492 C.3     1  UNL1        0.1592
     26 O         138.7607  139.9003  164.4423 O.3     1  UNL1       -0.3516
     27 H         136.1918  140.5220  161.8755 H       1  UNL1        0.1234
@<TRIPOS>BOND
     1    16    17    3
     2    17    10    1
     3    10    11   ar
     4    11    12   ar
     5    12    13   ar
     6    13     8    1
     7     8     1    1
     8     1     2   ar
     9     2     3   ar
    10     3    18    1
    11    18    20    1
    12    21    20    1
    13    21    22    1
    14    22    23    1
    15    23    24    1
    16    24    25    1
    17    25    26    1
    18     3     4   ar
    19     4     5    1
    20     4     6   ar
    21     6     7   ar
    22    13    14   ar
    23    14    15   ar
    24    15    10   ar
    25     7     1   ar
    26    26    21    1
    27     8     9    1
    28    18    19    1
    29    23    27    1
@<TRIPOS>MOLECULE
*****
 27 29 0 0 0
SMALL
GASTEIGER

@<TRIPOS>ATOM
      1 C         143.1970  138.6355  165.6904 C.ar    1  UNL1        0.1345
      2 C         144.1355  139.3983  164.8029 C.ar    1  UNL1        0.0496
      3 C         143.9660  139.3487  163.3134 C.ar    1  UNL1        0.0597
      4 C         142.8580  138.5364  162.7113 C.ar    1  UNL1        0.0899
      5 CL        142.6886  138.4868  161.2216 Cl      1  UNL1       -0.0793
      6 C         141.9196  137.7736  163.5987 C.ar    1  UNL1        0.1129
      7 N         142.0891  137.8232  165.0883 N.ar    1  UNL1       -0.2281
      8 N         143.3665  138.6851  167.1800 N.pl3   1  UNL1       -0.2821
      9 H         144.0281  138.1037  167.6197 H       1  UNL1        0.1551
     10 C         140.8510  141.4918  169.6386 C.ar    1  UNL1        0.1683
     11 C         142.0475  140.8257  170.2505 C.ar    1  UNL1        0.1299
     12 N         142.8861  139.8901  169.4310 N.ar    1  UNL1       -0.2251
     13 C         142.5280  139.6207  167.9995 C.ar    1  UNL1        0.1527
     14 C         141.3314  140.2868  167.3876 C.ar    1  UNL1        0.1340
     15 N         140.4929  141.2223  168.2071 N.ar    1  UNL1       -0.2290
     16 N         139.1739  143.3629  171.2777 N.1     1  UNL1       -0.1892
     17 C         140.0124  142.4273  170.4581 C.1     1  UNL1        0.1214
     18 N         144.9044  140.1115  162.4259 N.pl3   1  UNL1       -0.3299
     19 H         145.3786  139.6489  161.6977 H       1  UNL1        0.1469
     20 C         145.1203  141.5792  162.6481 C.3     1  UNL1        0.1185
     21 C         144.0313  142.5560  162.3169 C.3     1  UNL1        0.1503
     22 C         144.2208  144.0162  162.6034 C.3     1  UNL1        0.1003
     23 N         143.1318  144.9930  162.2723 N.3     1  UNL1       -0.2933
     24 C         141.8531  144.5097  161.6547 C.3     1  UNL1        0.1011
     25 C         141.6635  143.0496  161.3681 C.3     1  UNL1        0.1592
     26 O         142.7526  142.0728  161.6993 O.3     1  UNL1       -0.3516
     27 H         143.5325  145.6728  161.6260 H       1  UNL1        0.1234
@<TRIPOS>BOND
     1    16    17    3
     2    17    10    1
     3    10    11   ar
     4    11    12   ar
     5    12    13   ar
     6    13     8    1
     7     8     1    1
     8     1     2   ar
     9     2     3   ar
    10     3    18    1
    11    18    20    1
    12    21    20    1
    13    21    22    1
    14    22    23    1
    15    23    24    1
    16    24    25    1
    17    25    26    1
    18     3     4   ar
    19     4     5    1
    20     4     6   ar
    21     6     7   ar
    22    13    14   ar
    23    14    15   ar
    24    15    10   ar
    25     7     1   ar
    26    26    21    1
    27     8     9    1
    28    18    19    1
    29    23    27    1
@<TRIPOS>MOLECULE
*****
 27 29 0 0 0
SMALL
GASTEIGER

@<TRIPOS>ATOM
      1 C         143.0317  143.1673  164.3397 C.ar    1  UNL1        0.1345
      2 C         142.1634  144.3745  164.1426 C.ar    1  UNL1        0.0496
      3 C         141.7664  144.7949  162.7585 C.ar    1  UNL1        0.0597
      4 C         142.2376  144.0080  161.5715 C.ar    1  UNL1        0.0899
      5 CL        141.8405  144.4284  160.1874 Cl      1  UNL1       -0.0793
      6 C         143.1058  142.8009  161.7686 C.ar    1  UNL1        0.1129
      7 N         143.5029  142.3805  163.1528 N.ar    1  UNL1       -0.2281
      8 N         143.4287  142.7470  165.7238 N.pl3   1  UNL1       -0.2821
      9 H         144.3630  142.8439  166.0187 H       1  UNL1        0.1551
     10 C         140.3494  141.0427  168.5280 C.ar    1  UNL1        0.1683
     11 C         140.0901  141.0608  167.0507 C.ar    1  UNL1        0.1299
     12 N         141.1166  141.6289  166.1160 N.ar    1  UNL1       -0.2251
     13 C         142.4023  142.1789  166.6585 C.ar    1  UNL1        0.1527
     14 C         142.6616  142.1608  168.1358 C.ar    1  UNL1        0.1340
     15 N         141.6351  141.5927  169.0705 N.ar    1  UNL1       -0.2290
     16 N         138.2966  139.9066  170.3975 N.1     1  UNL1       -0.1892
     17 C         139.3230  140.4747  169.4627 C.1     1  UNL1        0.1214
     18 N         140.8982  146.0021  162.5614 N.pl3   1  UNL1       -0.3299
     19 H         141.2955  146.9027  162.5808 H       1  UNL1        0.1469
     20 C         139.4246  145.8372  162.3346 C.3     1  UNL1        0.1185
     21 C         138.7599  144.5288  162.6446 C.3     1  UNL1        0.1503
     22 C         138.3398  144.2154  164.0501 C.3     1  UNL1        0.1003
     23 N         137.6751  142.9070  164.3601 N.3     1  UNL1       -0.2933
     24 C         137.4304  141.9119  163.2647 C.3     1  UNL1        0.1011
     25 C         137.8505  142.2252  161.8592 C.3     1  UNL1        0.1592
     26 O         138.5152  143.5337  161.5492 O.3     1  UNL1       -0.3516
     27 H         136.7657  143.1276  164.7660 H       1  UNL1        0.1234
@<TRIPOS>BOND
     1    16    17    3
     2    17    10    1
     3    10    11   ar
     4    11    12   ar
     5    12    13   ar
     6    13     8    1
     7     8     1    1
     8     1     2   ar
     9     2     3   ar
    10     3    18    1
    11    18    20    1
    12    21    20    1
    13    21    22    1
    14    22    23    1
    15    23    24    1
    16    24    25    1
    17    25    26    1
    18     3     4   ar
    19     4     5    1
    20     4     6   ar
    21     6     7   ar
    22    13    14   ar
    23    14    15   ar
    24    15    10   ar
    25     7     1   ar
    26    26    21    1
    27     8     9    1
    28    18    19    1
    29    23    27    1
@<TRIPOS>MOLECULE
*****
 27 29 0 0 0
SMALL
GASTEIGER

@<TRIPOS>ATOM
      1 C         137.9928  141.5907  163.4385 C.ar    1  UNL1        0.1345
      2 C         138.1518  140.4049  162.5337 C.ar    1  UNL1        0.0496
      3 C         138.4700  139.0578  163.1117 C.ar    1  UNL1        0.0597
      4 C         138.6292  138.8965  164.5944 C.ar    1  UNL1        0.0899
      5 CL        138.9474  137.5493  165.1724 Cl      1  UNL1       -0.0793
      6 C         138.4703  140.0823  165.4992 C.ar    1  UNL1        0.1129
      7 N         138.1521  141.4294  164.9212 N.ar    1  UNL1       -0.2281
      8 N         137.6746  142.9378  162.8605 N.pl3   1  UNL1       -0.2821
      9 H         136.8573  143.4116  163.1373 H       1  UNL1        0.1551
     10 C         140.4559  144.8132  159.8609 C.ar    1  UNL1        0.1683
     11 C         139.5501  143.6921  159.4453 C.ar    1  UNL1        0.1299
     12 N         138.6230  143.0670  160.4452 N.ar    1  UNL1       -0.2251
     13 C         138.6017  143.5629  161.8606 C.ar    1  UNL1        0.1527
     14 C         139.5074  144.6840  162.2762 C.ar    1  UNL1        0.1340
     15 N         140.4345  145.3091  161.2763 N.ar    1  UNL1       -0.2290
     16 N         142.3100  146.0634  157.8611 N.1     1  UNL1       -0.1892
     17 C         141.3829  145.4383  158.8610 C.1     1  UNL1        0.1214
     18 N         138.6289  137.8720  162.2069 N.pl3   1  UNL1       -0.3299
     19 H         138.2146  137.0114  162.4458 H       1  UNL1        0.1469
     20 C         139.4191  137.9973  160.9381 C.3     1  UNL1        0.1185
     21 C         140.9100  138.1524  160.9952 C.3     1  UNL1        0.1503
     22 C         141.6706  137.6554  162.1887 C.3     1  UNL1        0.1003
     23 N         143.1614  137.8105  162.2459 N.3     1  UNL1       -0.2933
     24 C         143.8917  138.4628  161.1095 C.3     1  UNL1        0.1011
     25 C         143.1311  138.9598  159.9160 C.3     1  UNL1        0.1592
     26 O         141.6402  138.8046  159.8589 O.3     1  UNL1       -0.3516
     27 H         143.5513  136.8735  162.3473 H       1  UNL1        0.1234
@<TRIPOS>BOND
     1    16    17    3
     2    17    10    1
     3    10    11   ar
     4    11    12   ar
     5    12    13   ar
     6    13     8    1
     7     8     1    1
     8     1     2   ar
     9     2     3   ar
    10     3    18    1
    11    18    20    1
    12    21    20    1
    13    21    22    1
    14    22    23    1
    15    23    24    1
    16    24    25    1
    17    25    26    1
    18     3     4   ar
    19     4     5    1
    20     4     6   ar
    21     6     7   ar
    22    13    14   ar
    23    14    15   ar
    24    15    10   ar
    25     7     1   ar
    26    26    21    1
    27     8     9    1
    28    18    19    1
    29    23    27    1
@<TRIPOS>MOLECULE
*****
 27 29 0 0 0
SMALL
GASTEIGER

@<TRIPOS>ATOM
      1 C         137.9438  141.2824  163.2262 C.ar    1  UNL1        0.1345
      2 C         138.2661  141.1885  164.6882 C.ar    1  UNL1        0.0496
      3 C         138.6384  139.8663  165.2907 C.ar    1  UNL1        0.0597
      4 C         138.6884  138.6379  164.4313 C.ar    1  UNL1        0.0899
      5 CL        139.0607  137.3156  165.0339 Cl      1  UNL1       -0.0793
      6 C         138.3661  138.7317  162.9694 C.ar    1  UNL1        0.1129
      7 N         137.9938  140.0540  162.3668 N.ar    1  UNL1       -0.2281
      8 N         137.5716  142.6046  162.6237 N.pl3   1  UNL1       -0.2821
      9 H         136.7096  143.0233  162.8495 H       1  UNL1        0.1551
     10 C         140.3946  144.6579  159.7839 C.ar    1  UNL1        0.1683
     11 C         139.4908  143.5689  159.2866 C.ar    1  UNL1        0.1299
     12 N         138.5498  142.8845  160.2332 N.ar    1  UNL1       -0.2251
     13 C         138.5126  143.2891  161.6771 C.ar    1  UNL1        0.1527
     14 C         139.4163  144.3780  162.1744 C.ar    1  UNL1        0.1340
     15 N         140.3573  145.0625  161.2278 N.ar    1  UNL1       -0.2290
     16 N         142.2766  146.0268  157.8907 N.1     1  UNL1       -0.1892
     17 C         141.3356  145.3423  158.8373 C.1     1  UNL1        0.1214
     18 N         138.9607  139.7724  166.7527 N.pl3   1  UNL1       -0.3299
     19 H         138.2724  139.4745  167.3904 H       1  UNL1        0.1469
     20 C         140.3318  140.1324  167.2431 C.3     1  UNL1        0.1185
     21 C         140.5083  140.7226  168.6107 C.3     1  UNL1        0.1503
     22 C         140.8929  139.8430  169.7633 C.3     1  UNL1        0.1003
     23 N         141.0693  140.4332  171.1309 N.3     1  UNL1       -0.2933
     24 C         140.8611  141.9031  171.3460 C.3     1  UNL1        0.1011
     25 C         140.4765  142.7827  170.1935 C.3     1  UNL1        0.1592
     26 O         140.3001  142.1924  168.8258 O.3     1  UNL1       -0.3516
     27 H         142.0253  140.2258  171.4200 H       1  UNL1        0.1234
@<TRIPOS>BOND
     1    16    17    3
     2    17    10    1
     3    10    11   ar
     4    11    12   ar
     5    12    13   ar
     6    13     8    1
     7     8     1    1
     8     1     2   ar
     9     2     3   ar
    10     3    18    1
    11    18    20    1
    12    21    20    1
    13    21    22    1
    14    22    23    1
    15    23    24    1
    16    24    25    1
    17    25    26    1
    18     3     4   ar
    19     4     5    1
    20     4     6   ar
    21     6     7   ar
    22    13    14   ar
    23    14    15   ar
    24    15    10   ar
    25     7     1   ar
    26    26    21    1
    27     8     9    1
    28    18    19    1
    29    23    27    1
@<TRIPOS>MOLECULE
*****
 27 29 0 0 0
SMALL
GASTEIGER

@<TRIPOS>ATOM
      1 C         141.8516  143.6548  164.5704 C.ar    1  UNL1        0.1345
      2 C         140.7570  142.6982  164.9407 C.ar    1  UNL1        0.0496
      3 C         141.0964  141.3653  165.5391 C.ar    1  UNL1        0.0597
      4 C         142.5304  140.9889  165.7674 C.ar    1  UNL1        0.0899
      5 CL        142.8698  139.6560  166.3659 Cl      1  UNL1       -0.0793
      6 C         143.6249  141.9454  165.3972 C.ar    1  UNL1        0.1129
      7 N         143.2855  143.2784  164.7987 N.ar    1  UNL1       -0.2281
      8 N         141.5121  144.9876  163.9720 N.pl3   1  UNL1       -0.2821
      9 H         141.4962  145.7922  164.5391 H       1  UNL1        0.1551
     10 C         140.5664  145.3088  159.5842 C.ar    1  UNL1        0.1683
     11 C         141.7963  144.5780  160.0348 C.ar    1  UNL1        0.1299
     12 N         142.1116  144.4709  161.4974 N.ar    1  UNL1       -0.2251
     13 C         141.1969  145.0947  162.5094 C.ar    1  UNL1        0.1527
     14 C         139.9669  145.8255  162.0588 C.ar    1  UNL1        0.1340
     15 N         139.6517  145.9326  160.5962 N.ar    1  UNL1       -0.2290
     16 N         139.9359  145.5229  156.6590 N.1     1  UNL1       -0.1892
     17 C         140.2511  145.4159  158.1216 C.1     1  UNL1        0.1214
     18 N         140.0019  140.4088  165.9094 N.pl3   1  UNL1       -0.3299
     19 H         140.1945  139.6451  166.5001 H       1  UNL1        0.1469
     20 C         138.6139  140.6158  165.3796 C.3     1  UNL1        0.1185
     21 C         138.2539  140.1265  164.0081 C.3     1  UNL1        0.1503
     22 C         137.5334  141.0322  163.0539 C.3     1  UNL1        0.1003
     23 N         137.1734  140.5429  161.6824 N.3     1  UNL1       -0.2933
     24 C         137.5339  139.1479  161.2651 C.3     1  UNL1        0.1011
     25 C         138.2545  138.2423  162.2193 C.3     1  UNL1        0.1592
     26 O         138.6145  138.7316  163.5909 O.3     1  UNL1       -0.3516
     27 H         137.6209  141.1741  161.0177 H       1  UNL1        0.1234
@<TRIPOS>BOND
     1    16    17    3
     2    17    10    1
     3    10    11   ar
     4    11    12   ar
     5    12    13   ar
     6    13     8    1
     7     8     1    1
     8     1     2   ar
     9     2     3   ar
    10     3    18    1
    11    18    20    1
    12    21    20    1
    13    21    22    1
    14    22    23    1
    15    23    24    1
    16    24    25    1
    17    25    26    1
    18     3     4   ar
    19     4     5    1
    20     4     6   ar
    21     6     7   ar
    22    13    14   ar
    23    14    15   ar
    24    15    10   ar
    25     7     1   ar
    26    26    21    1
    27     8     9    1
    28    18    19    1
    29    23    27    1
@<TRIPOS>MOLECULE
*****
 27 29 0 0 0
SMALL
GASTEIGER

@<TRIPOS>ATOM
      1 C         139.6799  138.0065  162.9811 C.ar    1  UNL1        0.1345
      2 C         139.1866  139.0760  162.0522 C.ar    1  UNL1        0.0496
      3 C         140.0020  139.4638  160.8545 C.ar    1  UNL1        0.0597
      4 C         141.3109  138.7822  160.5856 C.ar    1  UNL1        0.0899
      5 CL        142.1263  139.1701  159.3878 Cl      1  UNL1       -0.0793
      6 C         141.8042  137.7127  161.5144 C.ar    1  UNL1        0.1129
      7 N         140.9888  137.3249  162.7122 N.ar    1  UNL1       -0.2281
      8 N         138.8645  137.6187  164.1788 N.pl3   1  UNL1       -0.2821
      9 H         138.2284  136.8696  164.1197 H       1  UNL1        0.1551
     10 C         139.3254  139.8793  168.0424 C.ar    1  UNL1        0.1683
     11 C         140.3646  140.0096  166.9687 C.ar    1  UNL1        0.1299
     12 N         140.2110  139.2561  165.6808 N.ar    1  UNL1       -0.2251
     13 C         139.0181  138.3722  165.4667 C.ar    1  UNL1        0.1527
     14 C         137.9789  138.2419  166.5405 C.ar    1  UNL1        0.1340
     15 N         138.1325  138.9954  167.8283 N.ar    1  UNL1       -0.2290
     16 N         139.6326  141.3863  170.6182 N.1     1  UNL1       -0.1892
     17 C         139.4790  140.6328  169.3303 C.1     1  UNL1        0.1214
     18 N         139.5086  140.5334  159.9256 N.pl3   1  UNL1       -0.3299
     19 H         139.9430  140.6654  159.0520 H       1  UNL1        0.1469
     20 C         138.3535  141.4016  160.3277 C.3     1  UNL1        0.1185
     21 C         138.5931  142.6399  161.1396 C.3     1  UNL1        0.1503
     22 C         137.7949  142.8859  162.3856 C.3     1  UNL1        0.1003
     23 N         138.0345  144.1241  163.1975 N.3     1  UNL1       -0.2933
     24 C         139.0722  145.1165  162.7635 C.3     1  UNL1        0.1011
     25 C         139.8703  144.8706  161.5175 C.3     1  UNL1        0.1592
     26 O         139.6307  143.6322  160.7056 O.3     1  UNL1       -0.3516
     27 H         138.2952  143.8161  164.1343 H       1  UNL1        0.1234
@<TRIPOS>BOND
     1    16    17    3
     2    17    10    1
     3    10    11   ar
     4    11    12   ar
     5    12    13   ar
     6    13     8    1
     7     8     1    1
     8     1     2   ar
     9     2     3   ar
    10     3    18    1
    11    18    20    1
    12    21    20    1
    13    21    22    1
    14    22    23    1
    15    23    24    1
    16    24    25    1
    17    25    26    1
    18     3     4   ar
    19     4     5    1
    20     4     6   ar
    21     6     7   ar
    22    13    14   ar
    23    14    15   ar
    24    15    10   ar
    25     7     1   ar
    26    26    21    1
    27     8     9    1
    28    18    19    1
    29    23    27    1
@<TRIPOS>MOLECULE
*****
 27 29 0 0 0
SMALL
GASTEIGER

@<TRIPOS>ATOM
      1 C         142.5218  142.8995  164.2419 C.ar    1  UNL1        0.1345
      2 C         143.2244  141.6069  163.9491 C.ar    1  UNL1        0.0496
      3 C         144.0547  141.4691  162.7075 C.ar    1  UNL1        0.0597
      4 C         144.1825  142.6239  161.7587 C.ar    1  UNL1        0.0899
      5 CL        145.0129  142.4860  160.5171 Cl      1  UNL1       -0.0793
      6 C         143.4800  143.9164  162.0515 C.ar    1  UNL1        0.1129
      7 N         142.6496  144.0542  163.2931 N.ar    1  UNL1       -0.2281
      8 N         141.6914  143.0373  165.4835 N.pl3   1  UNL1       -0.2821
      9 H         141.7730  143.8430  166.0433 H       1  UNL1        0.1551
     10 C         138.8275  139.7679  166.6493 C.ar    1  UNL1        0.1683
     11 C         139.9965  140.0909  167.5319 C.ar    1  UNL1        0.1299
     12 N         140.9511  141.1807  167.1433 N.ar    1  UNL1       -0.2251
     13 C         140.7368  141.9475  165.8721 C.ar    1  UNL1        0.1527
     14 C         139.5678  141.6245  164.9894 C.ar    1  UNL1        0.1340
     15 N         138.6132  140.5347  165.3781 N.ar    1  UNL1       -0.2290
     16 N         136.9182  137.5883  167.4265 N.1     1  UNL1       -0.1892
     17 C         137.8729  138.6781  167.0379 C.1     1  UNL1        0.1214
     18 N         144.7573  140.1765  162.4147 N.pl3   1  UNL1       -0.3299
     19 H         145.6985  140.0573  162.6776 H       1  UNL1        0.1469
     20 C         144.0257  139.0656  161.7215 C.3     1  UNL1        0.1185
     21 C         142.7955  138.4747  162.3438 C.3     1  UNL1        0.1503
     22 C         141.6315  138.0859  161.4813 C.3     1  UNL1        0.1003
     23 N         140.4012  137.4950  162.1036 N.3     1  UNL1       -0.2933
     24 C         140.3350  137.2929  163.5885 C.3     1  UNL1        0.1011
     25 C         141.4990  137.6817  164.4510 C.3     1  UNL1        0.1592
     26 O         142.7293  138.2727  163.8286 O.3     1  UNL1       -0.3516
     27 H         140.2655  136.5792  161.6754 H       1  UNL1        0.1234
@<TRIPOS>BOND
     1    16    17    3
     2    17    10    1
     3    10    11   ar
     4    11    12   ar
     5    12    13   ar
     6    13     8    1
     7     8     1    1
     8     1     2   ar
     9     2     3   ar
    10     3    18    1
    11    18    20    1
    12    21    20    1
    13    21    22    1
    14    22    23    1
    15    23    24    1
    16    24    25    1
    17    25    26    1
    18     3     4   ar
    19     4     5    1
    20     4     6   ar
    21     6     7   ar
    22    13    14   ar
    23    14    15   ar
    24    15    10   ar
    25     7     1   ar
    26    26    21    1
    27     8     9    1
    28    18    19    1
    29    23    27    1
