@<TRIPOS>MOLECULE
*****
 32 35 0 0 0
SMALL
GASTEIGER

@<TRIPOS>ATOM
      1 N         143.2576  140.8666  162.2639 N.3     1  UNL1       -0.2727
      2 C         141.7819  141.1191  162.3548 C.3     1  UNL1        0.0722
      3 C         141.1263  141.2597  163.6966 C.3     1  UNL1        0.0204
      4 C         141.9465  141.1478  164.9475 C.3     1  UNL1        0.0353
      5 C         143.4223  140.8952  164.8566 C.3     1  UNL1        0.0204
      6 C         144.0779  140.7546  163.5148 C.3     1  UNL1        0.0722
      7 C         141.2909  141.2884  166.2893 C.3     1  UNL1        0.1256
      8 O         142.3497  140.4173  166.8979 O.3     1  UNL1       -0.3786
      9 H         142.5277  140.7107  167.8051 H       1  UNL1        0.2111
     10 C         140.6354  141.4290  167.6311 C.ar    1  UNL1        0.0056
     11 C         139.8496  140.2875  168.2053 C.ar    1  UNL1       -0.0017
     12 C         139.1941  140.4281  169.5471 C.ar    1  UNL1       -0.0002
     13 C         139.3242  141.7102  170.3147 C.ar    1  UNL1       -0.0000
     14 C         140.1100  142.8517  169.7406 C.ar    1  UNL1       -0.0002
     15 C         140.7656  142.7111  168.3988 C.ar    1  UNL1       -0.0017
     16 C         140.2322  142.1594  165.6808 C.ar    1  UNL1        0.0056
     17 C         140.4978  143.6189  165.4589 C.ar    1  UNL1       -0.0017
     18 C         139.4391  144.4899  164.8503 C.ar    1  UNL1       -0.0002
     19 C         138.1147  143.9015  164.4637 C.ar    1  UNL1       -0.0000
     20 C         137.8490  142.4420  164.6855 C.ar    1  UNL1       -0.0002
     21 C         138.9077  141.5709  165.2941 C.ar    1  UNL1       -0.0017
     22 C         143.9132  140.7260  160.9221 C.3     1  UNL1        0.0721
     23 C         144.0974  139.3661  160.3161 C.3     1  UNL1        0.0173
     24 C         143.6623  138.1442  161.0695 C.3     1  UNL1        0.0014
     25 C         142.2487  137.6559  160.9543 C.3     1  UNL1        0.0000
     26 C         138.5826  137.9352  165.6958 C.3     1  UNL1        0.0000
     27 C         139.4992  137.8654  164.5104 C.3     1  UNL1        0.0000
     28 C         138.9435  138.0006  163.1238 C.3     1  UNL1        0.0000
     29 C         139.8600  137.9308  161.9384 C.3     1  UNL1        0.0000
     30 C         141.3322  137.7257  162.1397 C.3     1  UNL1        0.0000
     31 C         141.8879  137.5905  163.5264 C.3     1  UNL1        0.0000
     32 C         140.9713  137.6603  164.7117 C.3     1  UNL1        0.0000
@<TRIPOS>BOND
     1    26    27    1
     2    27    28    1
     3    28    29    1
     4    29    30    1
     5    30    25    1
     6    25    24    1
     7    24    23    1
     8    23    22    1
     9    22     1    1
    10     1     2    1
    11     2     3    1
    12     3     4    1
    13     4     7    1
    14     7     8    1
    15     7    10    1
    16    10    11   ar
    17    11    12   ar
    18    12    13   ar
    19    13    14   ar
    20    14    15   ar
    21     7    16    1
    22    16    17   ar
    23    17    18   ar
    24    18    19   ar
    25    19    20   ar
    26    20    21   ar
    27     4     5    1
    28     5     6    1
    29    30    31    1
    30    31    32    1
    31    32    27    1
    32     6     1    1
    33    15    10   ar
    34    21    16   ar
    35     8     9    1
@<TRIPOS>MOLECULE
*****
 32 35 0 0 0
SMALL
GASTEIGER

@<TRIPOS>ATOM
      1 N         138.3386  138.9075  163.1886 N.3     1  UNL1       -0.2727
      2 C         139.2603  137.9378  163.8668 C.3     1  UNL1        0.0722
      3 C         139.8376  138.2669  165.2116 C.3     1  UNL1        0.0204
      4 C         139.4932  139.5658  165.8782 C.3     1  UNL1        0.0353
      5 C         138.5714  140.5356  165.1999 C.3     1  UNL1        0.0204
      6 C         137.9941  140.2064  163.8551 C.3     1  UNL1        0.0722
      7 C         140.0705  139.8949  167.2229 C.3     1  UNL1        0.1256
      8 O         138.8586  139.3106  167.8862 O.3     1  UNL1       -0.3786
      9 H         139.1165  138.8984  168.7255 H       1  UNL1        0.2111
     10 C         140.6478  140.2241  168.5677 C.ar    1  UNL1        0.0056
     11 C         141.9368  139.5939  169.0051 C.ar    1  UNL1       -0.0017
     12 C         142.5141  139.9231  170.3499 C.ar    1  UNL1       -0.0002
     13 C         141.8024  140.8823  171.2572 C.ar    1  UNL1       -0.0000
     14 C         140.5133  141.5125  170.8198 C.ar    1  UNL1       -0.0002
     15 C         139.9360  141.1834  169.4750 C.ar    1  UNL1       -0.0017
     16 C         141.2824  140.4792  166.5597 C.ar    1  UNL1        0.0056
     17 C         141.5391  141.9552  166.6329 C.ar    1  UNL1       -0.0017
     18 C         142.7510  142.5396  165.9697 C.ar    1  UNL1       -0.0002
     19 C         143.7061  141.6479  165.2331 C.ar    1  UNL1       -0.0000
     20 C         143.4494  140.1718  165.1599 C.ar    1  UNL1       -0.0002
     21 C         142.2375  139.5875  165.8231 C.ar    1  UNL1       -0.0017
     22 C         137.7613  138.5784  161.8438 C.3     1  UNL1        0.0721
     23 C         137.8529  139.5728  160.7246 C.3     1  UNL1        0.0173
     24 C         139.1848  140.1411  160.3333 C.3     1  UNL1        0.0014
     25 C         139.3799  141.6274  160.2807 C.3     1  UNL1        0.0000
     26 C         138.7754  144.9109  165.2660 C.3     1  UNL1        0.0000
     27 C         138.9265  144.0900  164.0197 C.3     1  UNL1        0.0000
     28 C         137.7508  143.8814  163.1119 C.3     1  UNL1        0.0000
     29 C         137.9019  143.0605  161.8656 C.3     1  UNL1        0.0000
     30 C         139.2288  142.4483  161.5270 C.3     1  UNL1        0.0000
     31 C         140.4045  142.6570  162.4348 C.3     1  UNL1        0.0000
     32 C         140.2534  143.4778  163.6811 C.3     1  UNL1        0.0000
@<TRIPOS>BOND
     1    26    27    1
     2    27    28    1
     3    28    29    1
     4    29    30    1
     5    30    25    1
     6    25    24    1
     7    24    23    1
     8    23    22    1
     9    22     1    1
    10     1     2    1
    11     2     3    1
    12     3     4    1
    13     4     7    1
    14     7     8    1
    15     7    10    1
    16    10    11   ar
    17    11    12   ar
    18    12    13   ar
    19    13    14   ar
    20    14    15   ar
    21     7    16    1
    22    16    17   ar
    23    17    18   ar
    24    18    19   ar
    25    19    20   ar
    26    20    21   ar
    27     4     5    1
    28     5     6    1
    29    30    31    1
    30    31    32    1
    31    32    27    1
    32     6     1    1
    33    15    10   ar
    34    21    16   ar
    35     8     9    1
@<TRIPOS>MOLECULE
*****
 32 35 0 0 0
SMALL
GASTEIGER

@<TRIPOS>ATOM
      1 N         141.9240  139.3810  161.7282 N.3     1  UNL1       -0.2727
      2 C         141.5006  140.8120  161.8795 C.3     1  UNL1        0.0722
      3 C         141.4758  141.4472  163.2381 C.3     1  UNL1        0.0204
      4 C         141.8743  140.6513  164.4455 C.3     1  UNL1        0.0353
      5 C         142.2977  139.2203  164.2943 C.3     1  UNL1        0.0204
      6 C         142.3226  138.5851  162.9356 C.3     1  UNL1        0.0722
      7 C         141.8494  141.2865  165.8041 C.3     1  UNL1        0.1256
      8 O         141.5908  139.9462  166.4260 O.3     1  UNL1       -0.3786
      9 H         142.0215  139.9041  167.2941 H       1  UNL1        0.2111
     10 C         141.8245  141.9217  167.1628 C.ar    1  UNL1        0.0056
     11 C         143.0695  141.9534  167.9988 C.ar    1  UNL1       -0.0017
     12 C         143.0446  142.5886  169.3574 C.ar    1  UNL1       -0.0002
     13 C         141.7747  143.1921  169.8801 C.ar    1  UNL1       -0.0000
     14 C         140.5296  143.1605  169.0440 C.ar    1  UNL1       -0.0002
     15 C         140.5545  142.5253  167.6854 C.ar    1  UNL1       -0.0017
     16 C         142.1079  142.6268  165.1823 C.ar    1  UNL1        0.0056
     17 C         140.9595  143.5292  164.8405 C.ar    1  UNL1       -0.0017
     18 C         141.2180  144.8695  164.2186 C.ar    1  UNL1       -0.0002
     19 C         142.6250  145.3075  163.9385 C.ar    1  UNL1       -0.0000
     20 C         143.7734  144.4051  164.2802 C.ar    1  UNL1       -0.0002
     21 C         143.5149  143.0648  164.9021 C.ar    1  UNL1       -0.0017
     22 C         141.9489  138.7458  160.3696 C.3     1  UNL1        0.0721
     23 C         140.6783  138.6027  159.5851 C.3     1  UNL1        0.0173
     24 C         139.4512  138.0421  160.2408 C.3     1  UNL1        0.0014
     25 C         138.4950  138.9559  160.9484 C.3     1  UNL1        0.0000
     26 C         138.3812  139.1183  166.9451 C.3     1  UNL1        0.0000
     27 C         138.4097  139.0777  165.4459 C.3     1  UNL1        0.0000
     28 C         138.8115  137.8182  164.7372 C.3     1  UNL1        0.0000
     29 C         138.8400  137.7776  163.2380 C.3     1  UNL1        0.0000
     30 C         138.4666  138.9965  162.4475 C.3     1  UNL1        0.0000
     31 C         138.0647  140.2559  163.1562 C.3     1  UNL1        0.0000
     32 C         138.0363  140.2965  164.6554 C.3     1  UNL1        0.0000
@<TRIPOS>BOND
     1    26    27    1
     2    27    28    1
     3    28    29    1
     4    29    30    1
     5    30    25    1
     6    25    24    1
     7    24    23    1
     8    23    22    1
     9    22     1    1
    10     1     2    1
    11     2     3    1
    12     3     4    1
    13     4     7    1
    14     7     8    1
    15     7    10    1
    16    10    11   ar
    17    11    12   ar
    18    12    13   ar
    19    13    14   ar
    20    14    15   ar
    21     7    16    1
    22    16    17   ar
    23    17    18   ar
    24    18    19   ar
    25    19    20   ar
    26    20    21   ar
    27     4     5    1
    28     5     6    1
    29    30    31    1
    30    31    32    1
    31    32    27    1
    32     6     1    1
    33    15    10   ar
    34    21    16   ar
    35     8     9    1
@<TRIPOS>MOLECULE
*****
 32 35 0 0 0
SMALL
GASTEIGER

@<TRIPOS>ATOM
      1 N         140.9696  139.2047  161.9479 N.3     1  UNL1       -0.2727
      2 C         140.7717  138.4183  163.2098 C.3     1  UNL1        0.0722
      3 C         140.9078  139.0925  164.5428 C.3     1  UNL1        0.0204
      4 C         141.2417  140.5531  164.6140 C.3     1  UNL1        0.0353
      5 C         141.4396  141.3396  163.3520 C.3     1  UNL1        0.0204
      6 C         141.3035  140.6654  162.0190 C.3     1  UNL1        0.0722
      7 C         141.3778  141.2273  165.9470 C.3     1  UNL1        0.1256
      8 O         140.4843  140.1913  166.5622 O.3     1  UNL1       -0.3786
      9 H         140.7652  140.0231  167.4752 H       1  UNL1        0.2111
     10 C         141.5139  141.9015  167.2800 C.ar    1  UNL1        0.0056
     11 C         140.3739  142.7029  167.8350 C.ar    1  UNL1       -0.0017
     12 C         140.5100  143.3771  169.1680 C.ar    1  UNL1       -0.0002
     13 C         141.7861  143.2499  169.9460 C.ar    1  UNL1       -0.0000
     14 C         142.9262  142.4485  169.3910 C.ar    1  UNL1       -0.0002
     15 C         142.7901  141.7743  168.0580 C.ar    1  UNL1       -0.0017
     16 C         142.2713  142.2632  165.3318 C.ar    1  UNL1        0.0056
     17 C         143.7395  141.9944  165.1827 C.ar    1  UNL1       -0.0017
     18 C         144.6330  143.0303  164.5675 C.ar    1  UNL1       -0.0002
     19 C         144.0584  144.3351  164.1015 C.ar    1  UNL1       -0.0000
     20 C         142.5903  144.6040  164.2506 C.ar    1  UNL1       -0.0002
     21 C         141.6967  143.5680  164.8657 C.ar    1  UNL1       -0.0017
     22 C         140.8335  138.5305  160.6149 C.3     1  UNL1        0.0721
     23 C         139.4956  138.4674  159.9395 C.3     1  UNL1        0.0173
     24 C         138.5539  139.6313  160.0305 C.3     1  UNL1        0.0014
     25 C         137.6410  139.7669  161.2130 C.3     1  UNL1        0.0000
     26 C         138.2210  144.4406  164.9305 C.3     1  UNL1        0.0000
     27 C         138.0760  143.2721  164.0011 C.3     1  UNL1        0.0000
     28 C         137.8589  141.8954  164.5554 C.3     1  UNL1        0.0000
     29 C         137.7139  140.7269  163.6260 C.3     1  UNL1        0.0000
     30 C         137.7860  140.9353  162.1424 C.3     1  UNL1        0.0000
     31 C         138.0031  142.3121  161.5881 C.3     1  UNL1        0.0000
     32 C         138.1481  143.4805  162.5175 C.3     1  UNL1        0.0000
@<TRIPOS>BOND
     1    26    27    1
     2    27    28    1
     3    28    29    1
     4    29    30    1
     5    30    25    1
     6    25    24    1
     7    24    23    1
     8    23    22    1
     9    22     1    1
    10     1     2    1
    11     2     3    1
    12     3     4    1
    13     4     7    1
    14     7     8    1
    15     7    10    1
    16    10    11   ar
    17    11    12   ar
    18    12    13   ar
    19    13    14   ar
    20    14    15   ar
    21     7    16    1
    22    16    17   ar
    23    17    18   ar
    24    18    19   ar
    25    19    20   ar
    26    20    21   ar
    27     4     5    1
    28     5     6    1
    29    30    31    1
    30    31    32    1
    31    32    27    1
    32     6     1    1
    33    15    10   ar
    34    21    16   ar
    35     8     9    1
@<TRIPOS>MOLECULE
*****
 32 35 0 0 0
SMALL
GASTEIGER

@<TRIPOS>ATOM
      1 N         140.1246  142.8281  161.7986 N.3     1  UNL1       -0.2727
      2 C         140.9038  141.5647  162.0143 C.3     1  UNL1        0.0722
      3 C         141.4268  141.2299  163.3797 C.3     1  UNL1        0.0204
      4 C         141.1706  142.1585  164.5294 C.3     1  UNL1        0.0353
      5 C         140.3914  143.4220  164.3138 C.3     1  UNL1        0.0204
      6 C         139.8683  143.7568  162.9484 C.3     1  UNL1        0.0722
      7 C         141.6936  141.8237  165.8949 C.3     1  UNL1        0.1256
      8 O         140.3648  142.1814  166.4916 O.3     1  UNL1       -0.3786
      9 H         140.1888  141.6097  167.2552 H       1  UNL1        0.2111
     10 C         142.2167  141.4889  167.2603 C.ar    1  UNL1        0.0056
     11 C         141.9060  140.1572  167.8767 C.ar    1  UNL1       -0.0017
     12 C         142.4290  139.8224  169.2421 C.ar    1  UNL1       -0.0002
     13 C         143.2627  140.8193  169.9911 C.ar    1  UNL1       -0.0000
     14 C         143.5735  142.1511  169.3747 C.ar    1  UNL1       -0.0002
     15 C         143.0504  142.4859  168.0093 C.ar    1  UNL1       -0.0017
     16 C         143.0225  141.4660  165.2981 C.ar    1  UNL1        0.0056
     17 C         143.4307  140.0271  165.1845 C.ar    1  UNL1       -0.0017
     18 C         144.7596  139.6694  164.5878 C.ar    1  UNL1       -0.0002
     19 C         145.6803  140.7505  164.1046 C.ar    1  UNL1       -0.0000
     20 C         145.2721  142.1894  164.2182 C.ar    1  UNL1       -0.0002
     21 C         143.9432  142.5471  164.8150 C.ar    1  UNL1       -0.0017
     22 C         139.6015  143.1629  160.4332 C.3     1  UNL1        0.0721
     23 C         138.4321  142.4092  159.8724 C.3     1  UNL1        0.0173
     24 C         138.4749  140.9121  159.7891 C.3     1  UNL1        0.0014
     25 C         137.5444  140.0873  160.6280 C.3     1  UNL1        0.0000
     26 C         138.7876  139.1166  166.4169 C.3     1  UNL1        0.0000
     27 C         138.4768  139.3593  164.9697 C.3     1  UNL1        0.0000
     28 C         138.8063  138.3134  163.9462 C.3     1  UNL1        0.0000
     29 C         138.4955  138.5561  162.4990 C.3     1  UNL1        0.0000
     30 C         137.8552  139.8446  162.0752 C.3     1  UNL1        0.0000
     31 C         137.5257  140.8905  163.0987 C.3     1  UNL1        0.0000
     32 C         137.8365  140.6479  164.5459 C.3     1  UNL1        0.0000
@<TRIPOS>BOND
     1    26    27    1
     2    27    28    1
     3    28    29    1
     4    29    30    1
     5    30    25    1
     6    25    24    1
     7    24    23    1
     8    23    22    1
     9    22     1    1
    10     1     2    1
    11     2     3    1
    12     3     4    1
    13     4     7    1
    14     7     8    1
    15     7    10    1
    16    10    11   ar
    17    11    12   ar
    18    12    13   ar
    19    13    14   ar
    20    14    15   ar
    21     7    16    1
    22    16    17   ar
    23    17    18   ar
    24    18    19   ar
    25    19    20   ar
    26    20    21   ar
    27     4     5    1
    28     5     6    1
    29    30    31    1
    30    31    32    1
    31    32    27    1
    32     6     1    1
    33    15    10   ar
    34    21    16   ar
    35     8     9    1
@<TRIPOS>MOLECULE
*****
 32 35 0 0 0
SMALL
GASTEIGER

@<TRIPOS>ATOM
      1 N         138.9787  138.6787  163.5064 N.3     1  UNL1       -0.2727
      2 C         138.4215  140.0318  163.8359 C.3     1  UNL1        0.0722
      3 C         138.9912  140.8198  164.9780 C.3     1  UNL1        0.0204
      4 C         140.1181  140.2546  165.7908 C.3     1  UNL1        0.0353
      5 C         140.6754  138.9014  165.4614 C.3     1  UNL1        0.0204
      6 C         140.1057  138.1135  164.3192 C.3     1  UNL1        0.0722
      7 C         140.6878  141.0426  166.9330 C.3     1  UNL1        0.1256
      8 O         140.4085  139.8982  167.8617 O.3     1  UNL1       -0.3786
      9 H         141.0967  139.8605  168.5443 H       1  UNL1        0.2111
     10 C         141.2575  141.8305  168.0752 C.ar    1  UNL1        0.0056
     11 C         142.6886  141.6363  168.4803 C.ar    1  UNL1       -0.0017
     12 C         143.2583  142.4242  169.6225 C.ar    1  UNL1       -0.0002
     13 C         142.3969  143.4064  170.3595 C.ar    1  UNL1       -0.0000
     14 C         140.9657  143.6007  169.9544 C.ar    1  UNL1       -0.0002
     15 C         140.3960  142.8127  168.8122 C.ar    1  UNL1       -0.0017
     16 C         140.9671  142.1869  166.0042 C.ar    1  UNL1        0.0056
     17 C         142.2752  142.2578  165.2736 C.ar    1  UNL1       -0.0017
     18 C         142.5545  143.4021  164.3449 C.ar    1  UNL1       -0.0002
     19 C         141.5257  144.4755  164.1468 C.ar    1  UNL1       -0.0000
     20 C         140.2176  144.4046  164.8774 C.ar    1  UNL1       -0.0002
     21 C         139.9383  143.2603  165.8061 C.ar    1  UNL1       -0.0017
     22 C         138.4090  137.8908  162.3642 C.3     1  UNL1        0.0721
     23 C         138.9781  138.0501  160.9855 C.3     1  UNL1        0.0173
     24 C         140.2240  138.8591  160.7773 C.3     1  UNL1        0.0014
     25 C         141.5667  138.2563  161.0663 C.3     1  UNL1        0.0000
     26 C         145.8538  141.5738  163.6383 C.3     1  UNL1        0.0000
     27 C         144.7820  140.7444  162.9953 C.3     1  UNL1        0.0000
     28 C         144.4506  139.3892  163.5462 C.3     1  UNL1        0.0000
     29 C         143.3788  138.5598  162.9032 C.3     1  UNL1        0.0000
     30 C         142.6385  139.0857  161.7093 C.3     1  UNL1        0.0000
     31 C         142.9700  140.4409  161.1584 C.3     1  UNL1        0.0000
     32 C         144.0417  141.2702  161.8014 C.3     1  UNL1        0.0000
@<TRIPOS>BOND
     1    26    27    1
     2    27    28    1
     3    28    29    1
     4    29    30    1
     5    30    25    1
     6    25    24    1
     7    24    23    1
     8    23    22    1
     9    22     1    1
    10     1     2    1
    11     2     3    1
    12     3     4    1
    13     4     7    1
    14     7     8    1
    15     7    10    1
    16    10    11   ar
    17    11    12   ar
    18    12    13   ar
    19    13    14   ar
    20    14    15   ar
    21     7    16    1
    22    16    17   ar
    23    17    18   ar
    24    18    19   ar
    25    19    20   ar
    26    20    21   ar
    27     4     5    1
    28     5     6    1
    29    30    31    1
    30    31    32    1
    31    32    27    1
    32     6     1    1
    33    15    10   ar
    34    21    16   ar
    35     8     9    1
@<TRIPOS>MOLECULE
*****
 32 35 0 0 0
SMALL
GASTEIGER

@<TRIPOS>ATOM
      1 N         142.9850  142.2587  161.5968 N.3     1  UNL1       -0.2727
      2 C         141.5707  141.7882  161.7654 C.3     1  UNL1        0.0722
      3 C         140.9960  141.6172  163.1403 C.3     1  UNL1        0.0204
      4 C         141.8356  141.9167  164.3467 C.3     1  UNL1        0.0353
      5 C         143.2500  142.3872  164.1782 C.3     1  UNL1        0.0204
      6 C         143.8246  142.5582  162.8032 C.3     1  UNL1        0.0722
      7 C         141.2609  141.7457  165.7217 C.3     1  UNL1        0.1256
      8 O         142.4703  140.9575  166.1291 O.3     1  UNL1       -0.3786
      9 H         142.6677  141.1281  167.0634 H       1  UNL1        0.2111
     10 C         140.6862  141.5747  167.0966 C.ar    1  UNL1        0.0056
     11 C         140.0351  140.2794  167.4816 C.ar    1  UNL1       -0.0017
     12 C         139.4605  140.1084  168.8565 C.ar    1  UNL1       -0.0002
     13 C         139.5368  141.2327  169.8465 C.ar    1  UNL1       -0.0000
     14 C         140.1879  142.5281  169.4615 C.ar    1  UNL1       -0.0002
     15 C         140.7626  142.6991  168.0866 C.ar    1  UNL1       -0.0017
     16 C         140.0515  142.5339  165.3142 C.ar    1  UNL1        0.0056
     17 C         138.7733  141.8253  164.9765 C.ar    1  UNL1       -0.0017
     18 C         137.5638  142.6134  164.5690 C.ar    1  UNL1       -0.0002
     19 C         137.6326  144.1102  164.4992 C.ar    1  UNL1       -0.0000
     20 C         138.9108  144.8188  164.8369 C.ar    1  UNL1       -0.0002
     21 C         140.1202  144.0306  165.2444 C.ar    1  UNL1       -0.0017
     22 C         143.5597  142.4297  160.2219 C.3     1  UNL1        0.0721
     23 C         144.2434  141.2781  159.5462 C.3     1  UNL1        0.0173
     24 C         143.5515  139.9513  159.4423 C.3     1  UNL1        0.0014
     25 C         143.8706  138.8603  160.4209 C.3     1  UNL1        0.0000
     26 C         140.0384  137.5981  164.8617 C.3     1  UNL1        0.0000
     27 C         140.9965  137.9137  163.7515 C.3     1  UNL1        0.0000
     28 C         140.5424  137.8355  162.3241 C.3     1  UNL1        0.0000
     29 C         141.5004  138.1510  161.2139 C.3     1  UNL1        0.0000
     30 C         142.9126  138.5448  161.5311 C.3     1  UNL1        0.0000
     31 C         143.3667  138.6230  162.9585 C.3     1  UNL1        0.0000
     32 C         142.4086  138.3074  164.0688 C.3     1  UNL1        0.0000
@<TRIPOS>BOND
     1    26    27    1
     2    27    28    1
     3    28    29    1
     4    29    30    1
     5    30    25    1
     6    25    24    1
     7    24    23    1
     8    23    22    1
     9    22     1    1
    10     1     2    1
    11     2     3    1
    12     3     4    1
    13     4     7    1
    14     7     8    1
    15     7    10    1
    16    10    11   ar
    17    11    12   ar
    18    12    13   ar
    19    13    14   ar
    20    14    15   ar
    21     7    16    1
    22    16    17   ar
    23    17    18   ar
    24    18    19   ar
    25    19    20   ar
    26    20    21   ar
    27     4     5    1
    28     5     6    1
    29    30    31    1
    30    31    32    1
    31    32    27    1
    32     6     1    1
    33    15    10   ar
    34    21    16   ar
    35     8     9    1
@<TRIPOS>MOLECULE
*****
 32 35 0 0 0
SMALL
GASTEIGER

@<TRIPOS>ATOM
      1 N         138.9552  142.2736  162.0334 N.3     1  UNL1       -0.2727
      2 C         138.1590  142.6334  163.2526 C.3     1  UNL1        0.0722
      3 C         138.6591  142.2520  164.6144 C.3     1  UNL1        0.0204
      4 C         139.9554  141.5108  164.7569 C.3     1  UNL1        0.0353
      5 C         140.7516  141.1509  163.5376 C.3     1  UNL1        0.0204
      6 C         140.2515  141.5324  162.1758 C.3     1  UNL1        0.0722
      7 C         140.4555  141.1293  166.1187 C.3     1  UNL1        0.1256
      8 O         141.2000  142.4284  166.2091 O.3     1  UNL1       -0.3786
      9 H         141.2081  142.7330  167.1300 H       1  UNL1        0.2111
     10 C         140.9556  140.7479  167.4804 C.ar    1  UNL1        0.0056
     11 C         142.0376  139.7186  167.6209 C.ar    1  UNL1       -0.0017
     12 C         142.5377  139.3372  168.9827 C.ar    1  UNL1       -0.0002
     13 C         141.9558  139.9851  170.2040 C.ar    1  UNL1       -0.0000
     14 C         140.8737  141.0144  170.0635 C.ar    1  UNL1       -0.0002
     15 C         140.3736  141.3958  168.7018 C.ar    1  UNL1       -0.0017
     16 C         139.7109  139.8303  166.0282 C.ar    1  UNL1        0.0056
     17 C         138.5068  139.5944  166.8910 C.ar    1  UNL1       -0.0017
     18 C         137.7623  138.2953  166.8005 C.ar    1  UNL1       -0.0002
     19 C         138.2219  137.2322  165.8474 C.ar    1  UNL1       -0.0000
     20 C         139.4260  137.4682  164.9847 C.ar    1  UNL1       -0.0002
     21 C         140.1705  138.7672  165.0751 C.ar    1  UNL1       -0.0017
     22 C         138.4551  142.6551  160.6716 C.3     1  UNL1        0.0721
     23 C         139.4196  142.8010  159.5321 C.3     1  UNL1        0.0173
     24 C         140.0099  144.1433  159.2163 C.3     1  UNL1        0.0014
     25 C         140.2158  145.1482  160.3107 C.3     1  UNL1        0.0000
     26 C         144.1027  144.0091  164.7373 C.3     1  UNL1        0.0000
     27 C         143.1310  144.2939  163.6306 C.3     1  UNL1        0.0000
     28 C         143.4376  143.8507  162.2308 C.3     1  UNL1        0.0000
     29 C         142.4658  144.1355  161.1242 C.3     1  UNL1        0.0000
     30 C         141.1876  144.8635  161.4173 C.3     1  UNL1        0.0000
     31 C         140.8810  145.3067  162.8171 C.3     1  UNL1        0.0000
     32 C         141.8527  145.0219  163.9238 C.3     1  UNL1        0.0000
@<TRIPOS>BOND
     1    26    27    1
     2    27    28    1
     3    28    29    1
     4    29    30    1
     5    30    25    1
     6    25    24    1
     7    24    23    1
     8    23    22    1
     9    22     1    1
    10     1     2    1
    11     2     3    1
    12     3     4    1
    13     4     7    1
    14     7     8    1
    15     7    10    1
    16    10    11   ar
    17    11    12   ar
    18    12    13   ar
    19    13    14   ar
    20    14    15   ar
    21     7    16    1
    22    16    17   ar
    23    17    18   ar
    24    18    19   ar
    25    19    20   ar
    26    20    21   ar
    27     4     5    1
    28     5     6    1
    29    30    31    1
    30    31    32    1
    31    32    27    1
    32     6     1    1
    33    15    10   ar
    34    21    16   ar
    35     8     9    1
@<TRIPOS>MOLECULE
*****
 32 35 0 0 0
SMALL
GASTEIGER

@<TRIPOS>ATOM
      1 N         139.9206  140.4378  161.5656 N.3     1  UNL1       -0.2727
      2 C         138.9982  140.1307  162.7079 C.3     1  UNL1        0.0722
      3 C         139.3473  140.5805  164.0956 C.3     1  UNL1        0.0204
      4 C         140.6188  141.3374  164.3411 C.3     1  UNL1        0.0353
      5 C         141.5413  141.6446  163.1988 C.3     1  UNL1        0.0204
      6 C         141.1922  141.1948  161.8111 C.3     1  UNL1        0.0722
      7 C         140.9679  141.7872  165.7288 C.3     1  UNL1        0.1256
      8 O         140.1562  140.6615  166.2979 O.3     1  UNL1       -0.3786
      9 H         140.5678  140.3487  167.1186 H       1  UNL1        0.2111
     10 C         141.3171  142.2370  167.1166 C.ar    1  UNL1        0.0056
     11 C         142.6736  141.9386  167.6827 C.ar    1  UNL1       -0.0017
     12 C         143.0228  142.3884  169.0704 C.ar    1  UNL1       -0.0002
     13 C         142.0153  143.1366  169.8920 C.ar    1  UNL1       -0.0000
     14 C         140.6586  143.4351  169.3259 C.ar    1  UNL1       -0.0002
     15 C         140.3095  142.9853  167.9382 C.ar    1  UNL1       -0.0017
     16 C         141.7797  142.9129  165.1597 C.ar    1  UNL1        0.0056
     17 C         141.0933  144.1100  164.5717 C.ar    1  UNL1       -0.0017
     18 C         141.9051  145.2357  164.0026 C.ar    1  UNL1       -0.0002
     19 C         143.4033  145.1643  164.0216 C.ar    1  UNL1       -0.0000
     20 C         144.0896  143.9672  164.6096 C.ar    1  UNL1       -0.0002
     21 C         143.2779  142.8415  165.1787 C.ar    1  UNL1       -0.0017
     22 C         139.5715  139.9881  160.1779 C.3     1  UNL1        0.0721
     23 C         140.3493  138.8808  159.5304 C.3     1  UNL1        0.0173
     24 C         141.8238  138.7568  159.7762 C.3     1  UNL1        0.0014
     25 C         142.3454  137.6799  160.6806 C.3     1  UNL1        0.0000
     26 C         143.1545  138.7971  166.5199 C.3     1  UNL1        0.0000
     27 C         142.9522  138.5178  165.0601 C.3     1  UNL1        0.0000
     28 C         141.7315  137.7773  164.6003 C.3     1  UNL1        0.0000
     29 C         141.5293  137.4980  163.1405 C.3     1  UNL1        0.0000
     30 C         142.5477  137.9592  162.1405 C.3     1  UNL1        0.0000
     31 C         143.7684  138.6997  162.6003 C.3     1  UNL1        0.0000
     32 C         143.9707  138.9790  164.0601 C.3     1  UNL1        0.0000
@<TRIPOS>BOND
     1    26    27    1
     2    27    28    1
     3    28    29    1
     4    29    30    1
     5    30    25    1
     6    25    24    1
     7    24    23    1
     8    23    22    1
     9    22     1    1
    10     1     2    1
    11     2     3    1
    12     3     4    1
    13     4     7    1
    14     7     8    1
    15     7    10    1
    16    10    11   ar
    17    11    12   ar
    18    12    13   ar
    19    13    14   ar
    20    14    15   ar
    21     7    16    1
    22    16    17   ar
    23    17    18   ar
    24    18    19   ar
    25    19    20   ar
    26    20    21   ar
    27     4     5    1
    28     5     6    1
    29    30    31    1
    30    31    32    1
    31    32    27    1
    32     6     1    1
    33    15    10   ar
    34    21    16   ar
    35     8     9    1
