@<TRIPOS>MOLECULE
*****
 29 32 0 0 0
SMALL
GASTEIGER

@<TRIPOS>ATOM
      1 C         141.5056  140.1870  167.7489 C.3     1  UNL1        0.2959
      2 N         140.3837  140.1336  168.7432 N.2     1  UNL1       -0.2191
      3 C         140.9778  139.8959  170.0999 C.2     1  UNL1        0.1399
      4 C         140.2165  139.7733  171.3865 C.3     1  UNL1        0.0598
      5 C         142.4667  139.8024  169.9441 C.2     1  UNL1        0.3289
      6 N         143.4558  139.5698  171.0476 N.pl3   1  UNL1       -0.2454
      7 N         142.7929  139.9822  168.4911 N.2     1  UNL1       -0.0404
      8 H         143.1427  139.4631  171.9748 H       1  UNL1        0.2885
      9 H         144.4180  139.5238  170.8445 H       1  UNL1        0.2885
     10 C         144.1806  140.4886  164.1429 C.ar    1  UNL1        0.1387
     11 C         143.9766  141.6828  165.0274 C.ar    1  UNL1        0.0368
     12 C         143.0849  141.5822  166.2293 C.ar    1  UNL1        0.0052
     13 C         142.3973  140.2875  166.5469 C.ar    1  UNL1        0.0481
     14 C         142.6013  139.0934  165.6624 C.ar    1  UNL1        0.0052
     15 C         143.4930  139.1939  164.4604 C.ar    1  UNL1        0.0368
     16 C         145.1575  141.8765  162.1758 C.3     1  UNL1        0.2525
     17 O         145.0723  140.5891  162.9409 O.3     1  UNL1       -0.4714
     18 C         140.4047  140.4127  166.7554 C.ar    1  UNL1        0.0479
     19 C         139.3080  139.4000  166.6081 C.ar    1  UNL1        0.0021
     20 C         138.2071  139.6257  165.6147 C.ar    1  UNL1       -0.0001
     21 C         138.2029  140.8642  164.7684 C.ar    1  UNL1        0.0000
     22 C         139.2994  141.8769  164.9157 C.ar    1  UNL1        0.0014
     23 C         140.4004  141.6512  165.9092 C.ar    1  UNL1        0.0021
     24 C         139.2952  143.1154  164.0694 C.ar    1  UNL1        0.0192
     25 C         140.5441  143.9349  163.9331 C.ar    1  UNL1        0.0031
     26 C         140.5398  145.1734  163.0869 C.ar    1  UNL1        0.0207
     27 C         139.2866  145.5924  162.3769 C.ar    1  UNL1        0.0989
     28 N         138.0376  144.7728  162.5132 N.ar    1  UNL1       -0.2423
     29 C         138.0420  143.5343  163.3595 C.ar    1  UNL1        0.0988
@<TRIPOS>BOND
     1    16    17    1
     2    17    10    1
     3    10    11   ar
     4    11    12   ar
     5    12    13   ar
     6    13     1    1
     7     1    18    1
     8    18    19   ar
     9    19    20   ar
    10    20    21   ar
    11    21    22   ar
    12    22    24    1
    13    24    25   ar
    14    25    26   ar
    15    26    27   ar
    16    27    28   ar
    17    28    29   ar
    18    22    23   ar
    19     1     2    1
    20     2     3    2
    21     3     4    1
    22     3     5    1
    23     5     6    1
    24     5     7    2
    25    13    14   ar
    26    14    15   ar
    27    15    10   ar
    28     7     1    1
    29    23    18   ar
    30    29    24   ar
    31     6     8    1
    32     6     9    1
@<TRIPOS>MOLECULE
*****
 29 32 0 0 0
SMALL
GASTEIGER

@<TRIPOS>ATOM
      1 C         140.3398  141.0225  167.4728 C.3     1  UNL1        0.2959
      2 N         140.7016  142.0692  168.4845 N.2     1  UNL1       -0.2191
      3 C         139.9509  141.7711  169.7485 C.2     1  UNL1        0.1399
      4 C         140.0147  142.5646  171.0198 C.3     1  UNL1        0.0598
      5 C         139.1251  140.5403  169.5179 C.2     1  UNL1        0.3289
      6 N         138.2183  139.8868  170.5182 N.pl3   1  UNL1       -0.2454
      7 N         139.3655  140.0776  168.1114 N.2     1  UNL1       -0.0404
      8 H         138.1263  140.2673  171.4215 H       1  UNL1        0.2885
      9 H         137.7150  139.0775  170.2714 H       1  UNL1        0.2885
     10 C         139.8438  138.3588  163.8799 C.ar    1  UNL1        0.1387
     11 C         138.7335  139.2806  164.2891 C.ar    1  UNL1        0.0368
     12 C         138.8989  140.1685  165.4867 C.ar    1  UNL1        0.0052
     13 C         140.1745  140.1346  166.2752 C.ar    1  UNL1        0.0481
     14 C         141.2847  139.2128  165.8660 C.ar    1  UNL1        0.0052
     15 C         141.1194  138.3249  164.6683 C.ar    1  UNL1        0.0368
     16 C         139.2614  138.0569  161.3661 C.3     1  UNL1        0.2525
     17 O         139.6784  137.4709  162.6823 O.3     1  UNL1       -0.4714
     18 C         141.2795  141.7818  166.5837 C.ar    1  UNL1        0.0479
     19 C         142.7542  141.7583  166.8570 C.ar    1  UNL1        0.0021
     20 C         143.6939  142.5176  165.9680 C.ar    1  UNL1       -0.0001
     21 C         143.1589  143.3004  164.8056 C.ar    1  UNL1        0.0000
     22 C         141.6843  143.3239  164.5323 C.ar    1  UNL1        0.0014
     23 C         140.7446  142.5646  165.4214 C.ar    1  UNL1        0.0021
     24 C         141.1493  144.1067  163.3700 C.ar    1  UNL1        0.0192
     25 C         139.8597  144.8611  163.5037 C.ar    1  UNL1        0.0031
     26 C         139.3248  145.6438  162.3413 C.ar    1  UNL1        0.0207
     27 C         140.0794  145.6722  161.0452 C.ar    1  UNL1        0.0989
     28 N         141.3690  144.9178  160.9115 N.ar    1  UNL1       -0.2423
     29 C         141.9039  144.1350  162.0739 C.ar    1  UNL1        0.0988
@<TRIPOS>BOND
     1    16    17    1
     2    17    10    1
     3    10    11   ar
     4    11    12   ar
     5    12    13   ar
     6    13     1    1
     7     1    18    1
     8    18    19   ar
     9    19    20   ar
    10    20    21   ar
    11    21    22   ar
    12    22    24    1
    13    24    25   ar
    14    25    26   ar
    15    26    27   ar
    16    27    28   ar
    17    28    29   ar
    18    22    23   ar
    19     1     2    1
    20     2     3    2
    21     3     4    1
    22     3     5    1
    23     5     6    1
    24     5     7    2
    25    13    14   ar
    26    14    15   ar
    27    15    10   ar
    28     7     1    1
    29    23    18   ar
    30    29    24   ar
    31     6     8    1
    32     6     9    1
@<TRIPOS>MOLECULE
*****
 29 32 0 0 0
SMALL
GASTEIGER

@<TRIPOS>ATOM
      1 C         141.6212  141.3537  167.7501 C.3     1  UNL1        0.2959
      2 N         141.6770  140.2959  168.8122 N.2     1  UNL1       -0.2191
      3 C         142.7653  140.6642  169.7765 C.2     1  UNL1        0.1399
      4 C         143.1664  139.8841  170.9933 C.3     1  UNL1        0.0598
      5 C         143.3821  141.9497  169.3105 C.2     1  UNL1        0.3289
      6 N         144.5083  142.6806  169.9794 N.pl3   1  UNL1       -0.2454
      7 N         142.6751  142.3758  168.0581 N.2     1  UNL1       -0.0404
      8 H         144.9095  142.3192  170.8026 H       1  UNL1        0.2885
      9 H         144.8462  143.5217  169.5953 H       1  UNL1        0.2885
     10 C         140.7551  144.0019  164.2164 C.ar    1  UNL1        0.1387
     11 C         142.0780  143.3030  164.3236 C.ar    1  UNL1        0.0368
     12 C         142.3667  142.4203  165.5015 C.ar    1  UNL1        0.0052
     13 C         141.3325  142.2364  166.5722 C.ar    1  UNL1        0.0481
     14 C         140.0096  142.9353  166.4651 C.ar    1  UNL1        0.0052
     15 C         139.7210  143.8180  165.2872 C.ar    1  UNL1        0.0368
     16 C         139.0475  145.1640  162.6406 C.3     1  UNL1        0.2525
     17 O         140.4665  144.8846  163.0385 O.3     1  UNL1       -0.4714
     18 C         140.5070  140.5162  167.1959 C.ar    1  UNL1        0.0479
     19 C         139.3935  140.0613  168.0920 C.ar    1  UNL1        0.0021
     20 C         138.2794  139.2238  167.5378 C.ar    1  UNL1       -0.0001
     21 C         138.2787  138.8412  166.0875 C.ar    1  UNL1        0.0000
     22 C         139.3922  139.2960  165.1913 C.ar    1  UNL1        0.0014
     23 C         140.5064  140.1336  165.7456 C.ar    1  UNL1        0.0021
     24 C         139.3916  138.9134  163.7410 C.ar    1  UNL1        0.0192
     25 C         138.2697  139.3560  162.8490 C.ar    1  UNL1        0.0031
     26 C         138.2691  138.9733  161.3987 C.ar    1  UNL1        0.0207
     27 C         139.3904  138.1481  160.8402 C.ar    1  UNL1        0.0989
     28 N         140.5122  137.7055  161.7321 N.ar    1  UNL1       -0.2423
     29 C         140.5128  138.0882  163.1826 C.ar    1  UNL1        0.0988
@<TRIPOS>BOND
     1    16    17    1
     2    17    10    1
     3    10    11   ar
     4    11    12   ar
     5    12    13   ar
     6    13     1    1
     7     1    18    1
     8    18    19   ar
     9    19    20   ar
    10    20    21   ar
    11    21    22   ar
    12    22    24    1
    13    24    25   ar
    14    25    26   ar
    15    26    27   ar
    16    27    28   ar
    17    28    29   ar
    18    22    23   ar
    19     1     2    1
    20     2     3    2
    21     3     4    1
    22     3     5    1
    23     5     6    1
    24     5     7    2
    25    13    14   ar
    26    14    15   ar
    27    15    10   ar
    28     7     1    1
    29    23    18   ar
    30    29    24   ar
    31     6     8    1
    32     6     9    1
@<TRIPOS>MOLECULE
*****
 29 32 0 0 0
SMALL
GASTEIGER

@<TRIPOS>ATOM
      1 C         141.7680  140.7764  167.6203 C.3     1  UNL1        0.2959
      2 N         140.5885  140.7522  168.5467 N.2     1  UNL1       -0.2191
      3 C         141.0171  140.0963  169.8258 C.2     1  UNL1        0.1399
      4 C         140.1529  139.8626  171.0294 C.3     1  UNL1        0.0598
      5 C         142.4614  139.7150  169.6899 C.2     1  UNL1        0.3289
      6 N         143.2952  139.0331  170.7339 N.pl3   1  UNL1       -0.2454
      7 N         142.9256  140.1353  168.3269 N.2     1  UNL1       -0.0404
      8 H         142.8984  138.7957  171.6030 H       1  UNL1        0.2885
      9 H         144.2393  138.8231  170.5500 H       1  UNL1        0.2885
     10 C         144.7092  141.2725  164.2509 C.ar    1  UNL1        0.1387
     11 C         144.2669  142.4674  165.0424 C.ar    1  UNL1        0.0368
     12 C         143.2865  142.3020  166.1655 C.ar    1  UNL1        0.0052
     13 C         142.7484  140.9418  166.4972 C.ar    1  UNL1        0.0481
     14 C         143.1907  139.7469  165.7057 C.ar    1  UNL1        0.0052
     15 C         144.1711  139.9122  164.5825 C.ar    1  UNL1        0.0368
     16 C         145.2751  142.1374  161.8673 C.3     1  UNL1        0.2525
     17 O         145.6896  141.4379  163.1277 O.3     1  UNL1       -0.4714
     18 C         140.8155  141.4520  166.6789 C.ar    1  UNL1        0.0479
     19 C         140.4589  142.8950  166.8803 C.ar    1  UNL1        0.0021
     20 C         139.5064  143.5706  165.9389 C.ar    1  UNL1       -0.0001
     21 C         138.9104  142.8032  164.7962 C.ar    1  UNL1        0.0000
     22 C         139.2669  141.3602  164.5948 C.ar    1  UNL1        0.0014
     23 C         140.2195  140.6846  165.5362 C.ar    1  UNL1        0.0021
     24 C         138.6709  140.5928  163.4521 C.ar    1  UNL1        0.0192
     25 C         138.8140  139.1007  163.3950 C.ar    1  UNL1        0.0031
     26 C         138.2180  138.3333  162.2523 C.ar    1  UNL1        0.0207
     27 C         137.4789  139.0580  161.1665 C.ar    1  UNL1        0.0989
     28 N         137.3358  140.5501  161.2236 N.ar    1  UNL1       -0.2423
     29 C         137.9319  141.3175  162.3664 C.ar    1  UNL1        0.0988
@<TRIPOS>BOND
     1    16    17    1
     2    17    10    1
     3    10    11   ar
     4    11    12   ar
     5    12    13   ar
     6    13     1    1
     7     1    18    1
     8    18    19   ar
     9    19    20   ar
    10    20    21   ar
    11    21    22   ar
    12    22    24    1
    13    24    25   ar
    14    25    26   ar
    15    26    27   ar
    16    27    28   ar
    17    28    29   ar
    18    22    23   ar
    19     1     2    1
    20     2     3    2
    21     3     4    1
    22     3     5    1
    23     5     6    1
    24     5     7    2
    25    13    14   ar
    26    14    15   ar
    27    15    10   ar
    28     7     1    1
    29    23    18   ar
    30    29    24   ar
    31     6     8    1
    32     6     9    1
@<TRIPOS>MOLECULE
*****
 29 32 0 0 0
SMALL
GASTEIGER

@<TRIPOS>ATOM
      1 C         141.4796  140.9929  167.7203 C.3     1  UNL1        0.2959
      2 N         142.7069  140.6293  168.5022 N.2     1  UNL1       -0.2191
      3 C         142.2664  140.0724  169.8236 C.2     1  UNL1        0.1399
      4 C         143.1673  139.5821  170.9182 C.3     1  UNL1        0.0598
      5 C         140.7670  140.0919  169.8582 C.2     1  UNL1        0.3289
      6 N         139.9052  139.6246  170.9935 N.pl3   1  UNL1       -0.2454
      7 N         140.2807  140.6609  168.5583 N.2     1  UNL1       -0.0404
      8 H         140.3199  139.2645  171.8105 H       1  UNL1        0.2885
      9 H         138.9247  139.6779  170.9216 H       1  UNL1        0.2885
     10 C         138.4159  142.3516  164.7174 C.ar    1  UNL1        0.1387
     11 C         138.5135  140.9008  165.0853 C.ar    1  UNL1        0.0368
     12 C         139.5347  140.4479  166.0862 C.ar    1  UNL1        0.0052
     13 C         140.4584  141.4458  166.7193 C.ar    1  UNL1        0.0481
     14 C         140.3608  142.8967  166.3515 C.ar    1  UNL1        0.0052
     15 C         139.3395  143.3496  165.3505 C.ar    1  UNL1        0.0368
     16 C         137.6640  144.0075  162.8619 C.3     1  UNL1        0.2525
     17 O         137.3946  142.8045  163.7165 O.3     1  UNL1       -0.4714
     18 C         142.4651  141.4197  166.6730 C.ar    1  UNL1        0.0479
     19 C         143.3390  142.6159  166.9085 C.ar    1  UNL1        0.0021
     20 C         144.3244  143.0426  165.8612 C.ar    1  UNL1       -0.0001
     21 C         144.4359  142.2732  164.5784 C.ar    1  UNL1        0.0000
     22 C         143.5620  141.0771  164.3429 C.ar    1  UNL1        0.0014
     23 C         142.5766  140.6504  165.3902 C.ar    1  UNL1        0.0021
     24 C         143.6735  140.3078  163.0601 C.ar    1  UNL1        0.0192
     25 C         143.5492  138.8129  163.0688 C.ar    1  UNL1        0.0031
     26 C         143.6607  138.0435  161.7860 C.ar    1  UNL1        0.0207
     27 C         143.8965  138.7690  160.4944 C.ar    1  UNL1        0.0989
     28 N         144.0208  140.2638  160.4856 N.ar    1  UNL1       -0.2423
     29 C         143.9093  141.0332  161.7685 C.ar    1  UNL1        0.0988
@<TRIPOS>BOND
     1    16    17    1
     2    17    10    1
     3    10    11   ar
     4    11    12   ar
     5    12    13   ar
     6    13     1    1
     7     1    18    1
     8    18    19   ar
     9    19    20   ar
    10    20    21   ar
    11    21    22   ar
    12    22    24    1
    13    24    25   ar
    14    25    26   ar
    15    26    27   ar
    16    27    28   ar
    17    28    29   ar
    18    22    23   ar
    19     1     2    1
    20     2     3    2
    21     3     4    1
    22     3     5    1
    23     5     6    1
    24     5     7    2
    25    13    14   ar
    26    14    15   ar
    27    15    10   ar
    28     7     1    1
    29    23    18   ar
    30    29    24   ar
    31     6     8    1
    32     6     9    1
@<TRIPOS>MOLECULE
*****
 29 32 0 0 0
SMALL
GASTEIGER

@<TRIPOS>ATOM
      1 C         140.6892  139.7719  167.1139 C.3     1  UNL1        0.2959
      2 N         141.6909  140.0682  168.1903 N.2     1  UNL1       -0.2191
      3 C         140.9443  140.2675  169.4760 C.2     1  UNL1        0.1399
      4 C         141.5538  140.5843  170.8095 C.3     1  UNL1        0.0598
      5 C         139.4812  140.0942  169.1941 C.2     1  UNL1        0.3289
      6 N         138.3709  140.2074  170.1962 N.pl3   1  UNL1       -0.2454
      7 N         139.3236  139.7879  167.7342 N.2     1  UNL1       -0.0404
      8 H         138.5758  140.4130  171.1369 H       1  UNL1        0.2885
      9 H         137.4371  140.0761  169.9132 H       1  UNL1        0.2885
     10 C         138.4425  138.8315  163.3299 C.ar    1  UNL1        0.1387
     11 C         138.2336  140.1474  164.0189 C.ar    1  UNL1        0.0368
     12 C         138.9825  140.4609  165.2802 C.ar    1  UNL1        0.0052
     13 C         139.9403  139.4584  165.8526 C.ar    1  UNL1        0.0481
     14 C         140.1492  138.1425  165.1636 C.ar    1  UNL1        0.0052
     15 C         139.4003  137.8291  163.9023 C.ar    1  UNL1        0.0368
     16 C         137.6719  139.5095  160.9432 C.3     1  UNL1        0.2525
     17 O         137.6936  138.5181  162.0686 O.3     1  UNL1       -0.4714
     18 C         141.8983  139.6903  166.2298 C.ar    1  UNL1        0.0479
     19 C         143.0021  138.7282  166.5556 C.ar    1  UNL1        0.0021
     20 C         144.2110  138.6467  165.6715 C.ar    1  UNL1       -0.0001
     21 C         144.3163  139.5271  164.4617 C.ar    1  UNL1        0.0000
     22 C         143.2126  140.4891  164.1359 C.ar    1  UNL1        0.0014
     23 C         142.0035  140.5707  165.0200 C.ar    1  UNL1        0.0021
     24 C         143.3178  141.3695  162.9260 C.ar    1  UNL1        0.0192
     25 C         142.3940  142.5407  162.7681 C.ar    1  UNL1        0.0031
     26 C         142.4993  143.4211  161.5582 C.ar    1  UNL1        0.0207
     27 C         143.5284  143.1304  160.5063 C.ar    1  UNL1        0.0989
     28 N         144.4522  141.9592  160.6643 N.ar    1  UNL1       -0.2423
     29 C         144.3469  141.0788  161.8742 C.ar    1  UNL1        0.0988
@<TRIPOS>BOND
     1    16    17    1
     2    17    10    1
     3    10    11   ar
     4    11    12   ar
     5    12    13   ar
     6    13     1    1
     7     1    18    1
     8    18    19   ar
     9    19    20   ar
    10    20    21   ar
    11    21    22   ar
    12    22    24    1
    13    24    25   ar
    14    25    26   ar
    15    26    27   ar
    16    27    28   ar
    17    28    29   ar
    18    22    23   ar
    19     1     2    1
    20     2     3    2
    21     3     4    1
    22     3     5    1
    23     5     6    1
    24     5     7    2
    25    13    14   ar
    26    14    15   ar
    27    15    10   ar
    28     7     1    1
    29    23    18   ar
    30    29    24   ar
    31     6     8    1
    32     6     9    1
@<TRIPOS>MOLECULE
*****
 29 32 0 0 0
SMALL
GASTEIGER

@<TRIPOS>ATOM
      1 C         142.0460  142.5479  166.8821 C.3     1  UNL1        0.2959
      2 N         141.0207  142.4673  167.9740 N.2     1  UNL1       -0.2191
      3 C         141.7439  142.4421  169.2879 C.2     1  UNL1        0.1399
      4 C         141.1066  142.3653  170.6437 C.3     1  UNL1        0.0598
      5 C         143.2161  142.5071  169.0081 C.2     1  UNL1        0.3289
      6 N         144.3095  142.5067  170.0349 N.pl3   1  UNL1       -0.2454
      7 N         143.4028  142.5724  167.5212 N.2     1  UNL1       -0.0404
      8 H         144.0856  142.4608  170.9925 H       1  UNL1        0.2885
      9 H         145.2512  142.5524  169.7512 H       1  UNL1        0.2885
     10 C         144.3727  142.7845  163.0375 C.ar    1  UNL1        0.1387
     11 C         143.5125  143.9363  163.4657 C.ar    1  UNL1        0.0368
     12 C         142.7369  143.8574  164.7473 C.ar    1  UNL1        0.0052
     13 C         142.8216  142.6268  165.6006 C.ar    1  UNL1        0.0481
     14 C         143.6817  141.4750  165.1724 C.ar    1  UNL1        0.0052
     15 C         144.4573  141.5539  163.8909 C.ar    1  UNL1        0.0368
     16 C         144.5330  142.3804  160.4761 C.3     1  UNL1        0.2525
     17 O         145.1482  142.8634  161.7560 O.3     1  UNL1       -0.4714
     18 C         140.8513  142.5398  165.9751 C.ar    1  UNL1        0.0479
     19 C         139.8851  143.6869  165.9971 C.ar    1  UNL1        0.0021
     20 C         138.6905  143.6789  165.0902 C.ar    1  UNL1       -0.0001
     21 C         138.4620  142.5237  164.1610 C.ar    1  UNL1        0.0000
     22 C         139.4282  141.3765  164.1389 C.ar    1  UNL1        0.0014
     23 C         140.6228  141.3846  165.0460 C.ar    1  UNL1        0.0021
     24 C         139.1997  140.2213  163.2098 C.ar    1  UNL1        0.0192
     25 C         137.9370  140.1456  162.4036 C.ar    1  UNL1        0.0031
     26 C         137.7085  138.9904  161.4745 C.ar    1  UNL1        0.0207
     27 C         138.7428  137.9108  161.3516 C.ar    1  UNL1        0.0989
     28 N         140.0054  137.9866  162.1577 N.ar    1  UNL1       -0.2423
     29 C         140.2339  139.1418  163.0869 C.ar    1  UNL1        0.0988
@<TRIPOS>BOND
     1    16    17    1
     2    17    10    1
     3    10    11   ar
     4    11    12   ar
     5    12    13   ar
     6    13     1    1
     7     1    18    1
     8    18    19   ar
     9    19    20   ar
    10    20    21   ar
    11    21    22   ar
    12    22    24    1
    13    24    25   ar
    14    25    26   ar
    15    26    27   ar
    16    27    28   ar
    17    28    29   ar
    18    22    23   ar
    19     1     2    1
    20     2     3    2
    21     3     4    1
    22     3     5    1
    23     5     6    1
    24     5     7    2
    25    13    14   ar
    26    14    15   ar
    27    15    10   ar
    28     7     1    1
    29    23    18   ar
    30    29    24   ar
    31     6     8    1
    32     6     9    1
@<TRIPOS>MOLECULE
*****
 29 32 0 0 0
SMALL
GASTEIGER

@<TRIPOS>ATOM
      1 C         141.2098  140.5971  163.1012 C.3     1  UNL1        0.2959
      2 N         140.9526  139.5717  164.1654 N.2     1  UNL1       -0.2191
      3 C         141.3655  138.2332  163.6288 C.2     1  UNL1        0.1399
      4 C         141.2809  136.9260  164.3597 C.3     1  UNL1        0.0598
      5 C         141.8778  138.4313  162.2330 C.2     1  UNL1        0.3289
      6 N         142.3954  137.3571  161.3230 N.pl3   1  UNL1       -0.2454
      7 N         141.7815  139.8923  161.9069 N.2     1  UNL1       -0.0404
      8 H         142.4191  136.4218  161.6293 H       1  UNL1        0.2885
      9 H         142.7114  137.5874  160.4195 H       1  UNL1        0.2885
     10 C         141.6415  144.2761  160.5461 C.ar    1  UNL1        0.1387
     11 C         140.6142  143.2392  160.2004 C.ar    1  UNL1        0.0368
     12 C         140.4703  142.0128  161.0522 C.ar    1  UNL1        0.0052
     13 C         141.3537  141.8234  162.2495 C.ar    1  UNL1        0.0481
     14 C         142.3810  142.8603  162.5951 C.ar    1  UNL1        0.0052
     15 C         142.5249  144.0866  161.7434 C.ar    1  UNL1        0.0368
     16 C         141.6128  145.4073  158.2074 C.3     1  UNL1        0.2525
     17 O         141.7854  145.5024  159.6943 O.3     1  UNL1       -0.4714
     18 C         140.6681  141.5583  164.1175 C.ar    1  UNL1        0.0479
     19 C         139.4979  142.4318  163.7746 C.ar    1  UNL1        0.0021
     20 C         138.9562  143.3929  164.7908 C.ar    1  UNL1       -0.0001
     21 C         139.5847  143.4806  166.1499 C.ar    1  UNL1        0.0000
     22 C         140.7549  142.6071  166.4929 C.ar    1  UNL1        0.0014
     23 C         141.2966  141.6459  165.4766 C.ar    1  UNL1        0.0021
     24 C         141.3834  142.6947  167.8520 C.ar    1  UNL1        0.0192
     25 C         142.7970  142.2361  168.0556 C.ar    1  UNL1        0.0031
     26 C         143.4255  142.3237  169.4148 C.ar    1  UNL1        0.0207
     27 C         142.6404  142.8701  170.5704 C.ar    1  UNL1        0.0989
     28 N         141.2268  143.3287  170.3667 N.ar    1  UNL1       -0.2423
     29 C         140.5983  143.2411  169.0075 C.ar    1  UNL1        0.0988
@<TRIPOS>BOND
     1    16    17    1
     2    17    10    1
     3    10    11   ar
     4    11    12   ar
     5    12    13   ar
     6    13     1    1
     7     1    18    1
     8    18    19   ar
     9    19    20   ar
    10    20    21   ar
    11    21    22   ar
    12    22    24    1
    13    24    25   ar
    14    25    26   ar
    15    26    27   ar
    16    27    28   ar
    17    28    29   ar
    18    22    23   ar
    19     1     2    1
    20     2     3    2
    21     3     4    1
    22     3     5    1
    23     5     6    1
    24     5     7    2
    25    13    14   ar
    26    14    15   ar
    27    15    10   ar
    28     7     1    1
    29    23    18   ar
    30    29    24   ar
    31     6     8    1
    32     6     9    1
@<TRIPOS>MOLECULE
*****
 29 32 0 0 0
SMALL
GASTEIGER

@<TRIPOS>ATOM
      1 C         139.4418  139.8275  165.7263 C.3     1  UNL1        0.2959
      2 N         139.7047  140.4586  167.0615 N.2     1  UNL1       -0.2191
      3 C         138.8162  139.7942  168.0711 C.2     1  UNL1        0.1399
      4 C         138.7511  140.1152  169.5349 C.3     1  UNL1        0.0598
      5 C         138.0044  138.7525  167.3599 C.2     1  UNL1        0.3289
      6 N         136.9848  137.8490  167.9877 N.pl3   1  UNL1       -0.2454
      7 N         138.3910  138.7731  165.9108 N.2     1  UNL1       -0.0404
      8 H         136.7997  137.9112  168.9527 H       1  UNL1        0.2885
      9 H         136.5009  137.1937  167.4349 H       1  UNL1        0.2885
     10 C         139.3065  138.5392  161.4168 C.ar    1  UNL1        0.1387
     11 C         140.4685  138.1474  162.2806 C.ar    1  UNL1        0.0368
     12 C         140.5136  138.5768  163.7171 C.ar    1  UNL1        0.0052
     13 C         139.3967  139.3981  164.2898 C.ar    1  UNL1        0.0481
     14 C         138.2347  139.7899  163.4260 C.ar    1  UNL1        0.0052
     15 C         138.1896  139.3605  161.9895 C.ar    1  UNL1        0.0368
     16 C         140.1406  138.7828  158.9683 C.3     1  UNL1        0.2525
     17 O         139.2614  138.1098  159.9803 O.3     1  UNL1       -0.4714
     18 C         140.4833  140.7921  165.2415 C.ar    1  UNL1        0.0479
     19 C         141.8792  140.7252  165.7864 C.ar    1  UNL1        0.0021
     20 C         142.9205  141.6898  165.3017 C.ar    1  UNL1       -0.0001
     21 C         142.5660  142.7213  164.2720 C.ar    1  UNL1        0.0000
     22 C         141.1702  142.7883  163.7271 C.ar    1  UNL1        0.0014
     23 C         140.1287  141.8237  164.2119 C.ar    1  UNL1        0.0021
     24 C         140.8157  143.8198  162.6974 C.ar    1  UNL1        0.0192
     25 C         141.5827  143.8891  161.4102 C.ar    1  UNL1        0.0031
     26 C         141.2282  144.9207  160.3805 C.ar    1  UNL1        0.0207
     27 C         140.1066  145.8830  160.6381 C.ar    1  UNL1        0.0989
     28 N         139.3396  145.8136  161.9253 N.ar    1  UNL1       -0.2423
     29 C         139.6941  144.7820  162.9550 C.ar    1  UNL1        0.0988
@<TRIPOS>BOND
     1    16    17    1
     2    17    10    1
     3    10    11   ar
     4    11    12   ar
     5    12    13   ar
     6    13     1    1
     7     1    18    1
     8    18    19   ar
     9    19    20   ar
    10    20    21   ar
    11    21    22   ar
    12    22    24    1
    13    24    25   ar
    14    25    26   ar
    15    26    27   ar
    16    27    28   ar
    17    28    29   ar
    18    22    23   ar
    19     1     2    1
    20     2     3    2
    21     3     4    1
    22     3     5    1
    23     5     6    1
    24     5     7    2
    25    13    14   ar
    26    14    15   ar
    27    15    10   ar
    28     7     1    1
    29    23    18   ar
    30    29    24   ar
    31     6     8    1
    32     6     9    1
