@<TRIPOS>MOLECULE
*****
 40 43 0 0 0
SMALL
GASTEIGER

@<TRIPOS>ATOM
      1 C         141.5256  140.9179  166.9544 C.ar    1  UNL1        0.0203
      2 C         142.6294  139.9027  166.9853 C.ar    1  UNL1        0.0310
      3 C         143.3607  139.5512  165.7237 C.ar    1  UNL1        0.1414
      4 F         144.4645  138.5360  165.7546 F       1  UNL1       -0.2041
      5 C         142.9882  140.2150  164.4311 C.ar    1  UNL1        0.0440
      6 C         141.8844  141.2303  164.4002 C.ar    1  UNL1        0.0488
      7 C         141.1531  141.5817  165.6619 C.ar    1  UNL1       -0.0067
      8 C         140.0494  142.5970  165.6310 C.3     1  UNL1        0.0324
      9 C         139.6852  140.3887  168.7102 C.ar    1  UNL1        0.1870
     10 C         138.9540  140.7402  169.9718 C.ar    1  UNL1        0.1629
     11 N         137.8447  139.8595  170.4660 N.pl3   1  UNL1       -0.3401
     12 N         139.3319  141.9723  170.7393 N.ar    1  UNL1       -0.2063
     13 C         140.4410  142.8529  170.2452 C.ar    1  UNL1        0.2002
     14 N         141.1723  142.5015  168.9836 N.ar    1  UNL1       -0.2208
     15 C         140.7943  141.2694  168.2161 C.ar    1  UNL1        0.1194
     16 H         137.5967  139.0508  169.9623 H       1  UNL1        0.1438
     17 H         137.3648  140.0902  171.2941 H       1  UNL1        0.1438
     18 O         139.3073  139.1566  167.9427 O.3     1  UNL1       -0.4693
     19 C         138.4920  139.2744  166.6892 C.3     1  UNL1        0.2270
     20 C         138.6002  138.2252  165.6227 C.3     1  UNL1        0.1410
     21 C         140.2273  137.9241  163.6197 C.2     1  UNL1        0.2493
     22 O         140.9691  136.8659  164.3813 O.2     1  UNL1       -0.2699
     23 N         139.0429  138.6037  164.2403 N.am    1  UNL1       -0.2705
     24 C         138.3012  139.6619  163.4787 C.3     1  UNL1        0.1153
     25 C         142.0144  137.8668  161.7347 C.2     1  UNL1        0.0048
     26 C         140.6700  138.3026  162.2373 C.2     1  UNL1        0.0580
     27 N         141.5120  141.8941  163.1078 N.am    1  UNL1       -0.2805
     28 C         142.1763  143.1771  162.7049 C.2     1  UNL1        0.2517
     29 O         143.2131  143.7964  163.5946 O.2     1  UNL1       -0.2697
     30 H         140.8314  141.4876  162.5238 H       1  UNL1        0.1552
     31 C         141.8038  143.8410  161.4124 C.ar    1  UNL1        0.0810
     32 C         142.4418  143.3963  160.1297 C.ar    1  UNL1        0.0065
     33 C         142.0693  144.0601  158.8373 C.ar    1  UNL1       -0.0040
     34 C         141.0589  145.1687  158.8274 C.ar    1  UNL1       -0.0203
     35 C         140.4209  145.6134  160.1101 C.ar    1  UNL1        0.0255
     36 C         140.7934  144.9495  161.4025 C.ar    1  UNL1        0.1441
     37 F         140.1554  145.3942  162.6853 F       1  UNL1       -0.2040
     38 C         140.6864  145.8326  157.5349 C.3     1  UNL1        0.0224
     39 C         141.0162  146.1902  156.1160 C.3     1  UNL1        0.0047
     40 C         139.7115  146.6247  156.7151 C.3     1  UNL1        0.0047
@<TRIPOS>BOND
     1    25    26    2
     2    26    21    1
     3    21    22    2
     4    21    23   am
     5    23    24    1
     6    23    20    1
     7    20    19    1
     8    19    18    1
     9    18     9    1
    10     9    10   ar
    11    10    11    1
    12    10    12   ar
    13    12    13   ar
    14    13    14   ar
    15    14    15   ar
    16    15     1    1
    17     1     2   ar
    18     2     3   ar
    19     3     4    1
    20     3     5   ar
    21     5     6   ar
    22     6    27    1
    23    27    28   am
    24    28    29    2
    25    28    31    1
    26    31    32   ar
    27    32    33   ar
    28    33    34   ar
    29    34    38    1
    30    38    39    1
    31    39    40    1
    32    34    35   ar
    33    35    36   ar
    34    36    37    1
    35     6     7   ar
    36     7     8    1
    37    15     9   ar
    38     7     1   ar
    39    36    31   ar
    40    40    38    1
    41    11    16    1
    42    11    17    1
    43    27    30    1
@<TRIPOS>MOLECULE
*****
 40 43 0 0 0
SMALL
GASTEIGER

@<TRIPOS>ATOM
      1 C         140.2267  141.5683  166.7275 C.ar    1  UNL1        0.0203
      2 C         139.3677  140.3479  166.8780 C.ar    1  UNL1        0.0310
      3 C         138.7900  139.6830  165.6639 C.ar    1  UNL1        0.1414
      4 F         137.9310  138.4626  165.8144 F       1  UNL1       -0.2041
      5 C         139.0713  140.2384  164.2991 C.ar    1  UNL1        0.0440
      6 C         139.9304  141.4588  164.1486 C.ar    1  UNL1        0.0488
      7 C         140.5081  142.1238  165.3628 C.ar    1  UNL1       -0.0067
      8 C         141.3671  143.3442  165.2123 C.3     1  UNL1        0.0324
      9 C         142.2049  141.9163  168.3754 C.ar    1  UNL1        0.1870
     10 C         142.7825  142.5812  169.5896 C.ar    1  UNL1        0.1629
     11 N         144.1830  142.2643  170.0234 N.pl3   1  UNL1       -0.3401
     12 N         141.9597  143.5631  170.3699 N.ar    1  UNL1       -0.2063
     13 C         140.5592  143.8800  169.9361 C.ar    1  UNL1        0.2002
     14 N         139.9816  143.2151  168.7220 N.ar    1  UNL1       -0.2208
     15 C         140.8044  142.2332  167.9417 C.ar    1  UNL1        0.1194
     16 H         144.7231  141.6199  169.5113 H       1  UNL1        0.1438
     17 H         144.5622  142.7008  170.8203 H       1  UNL1        0.1438
     18 O         143.0277  140.9345  167.5951 O.3     1  UNL1       -0.4693
     19 C         142.7117  139.4698  167.6632 C.3     1  UNL1        0.2270
     20 C         143.3278  138.5229  166.6763 C.3     1  UNL1        0.1410
     21 C         142.2368  138.2370  164.3358 C.2     1  UNL1        0.2493
     22 O         141.2115  137.3151  164.9263 O.2     1  UNL1       -0.2699
     23 N         143.2949  138.8410  165.2107 N.am    1  UNL1       -0.2705
     24 C         144.3202  139.7629  164.6201 C.3     1  UNL1        0.1153
     25 C         141.1102  138.0000  162.0066 C.2     1  UNL1        0.0048
     26 C         142.2039  138.5551  162.8702 C.2     1  UNL1        0.0580
     27 N         140.2117  142.0143  162.7840 N.am    1  UNL1       -0.2805
     28 C         139.3407  143.0981  162.2212 C.2     1  UNL1        0.2517
     29 O         138.1883  143.6263  163.0231 O.2     1  UNL1       -0.2697
     30 H         140.9681  141.6676  162.2577 H       1  UNL1        0.1552
     31 C         139.6220  143.6536  160.8565 C.ar    1  UNL1        0.0810
     32 C         139.1873  142.8989  159.6353 C.ar    1  UNL1        0.0065
     33 C         139.4686  143.4545  158.2707 C.ar    1  UNL1       -0.0040
     34 C         140.1847  144.7647  158.1274 C.ar    1  UNL1       -0.0203
     35 C         140.6194  145.5194  159.3486 C.ar    1  UNL1        0.0255
     36 C         140.3381  144.9638  160.7132 C.ar    1  UNL1        0.1441
     37 F         140.7728  145.7185  161.9345 F       1  UNL1       -0.2040
     38 C         140.4660  145.3202  156.7627 C.3     1  UNL1        0.0224
     39 C         140.1443  146.2874  155.6622 C.3     1  UNL1        0.0047
     40 C         141.2750  145.3153  155.4995 C.3     1  UNL1        0.0047
@<TRIPOS>BOND
     1    25    26    2
     2    26    21    1
     3    21    22    2
     4    21    23   am
     5    23    24    1
     6    23    20    1
     7    20    19    1
     8    19    18    1
     9    18     9    1
    10     9    10   ar
    11    10    11    1
    12    10    12   ar
    13    12    13   ar
    14    13    14   ar
    15    14    15   ar
    16    15     1    1
    17     1     2   ar
    18     2     3   ar
    19     3     4    1
    20     3     5   ar
    21     5     6   ar
    22     6    27    1
    23    27    28   am
    24    28    29    2
    25    28    31    1
    26    31    32   ar
    27    32    33   ar
    28    33    34   ar
    29    34    38    1
    30    38    39    1
    31    39    40    1
    32    34    35   ar
    33    35    36   ar
    34    36    37    1
    35     6     7   ar
    36     7     8    1
    37    15     9   ar
    38     7     1   ar
    39    36    31   ar
    40    40    38    1
    41    11    16    1
    42    11    17    1
    43    27    30    1
@<TRIPOS>MOLECULE
*****
 40 43 0 0 0
SMALL
GASTEIGER

@<TRIPOS>ATOM
      1 C         142.9910  139.1982  158.4468 C.ar    1  UNL1        0.0203
      2 C         143.4951  140.4595  157.8104 C.ar    1  UNL1        0.0310
      3 C         144.0547  141.5585  158.6642 C.ar    1  UNL1        0.1414
      4 F         144.5587  142.8199  158.0278 F       1  UNL1       -0.2041
      5 C         144.1103  141.3962  160.1544 C.ar    1  UNL1        0.0440
      6 C         143.6063  140.1349  160.7908 C.ar    1  UNL1        0.0488
      7 C         143.0466  139.0358  159.9369 C.ar    1  UNL1       -0.0067
      8 C         142.5426  137.7745  160.5733 C.3     1  UNL1        0.0324
      9 C         140.9748  138.0954  157.2349 C.ar    1  UNL1        0.1870
     10 C         140.4152  136.9964  156.3811 C.ar    1  UNL1        0.1629
     11 N         138.9586  136.9926  156.0229 N.pl3   1  UNL1       -0.3401
     12 N         141.3123  135.9011  155.8853 N.ar    1  UNL1       -0.2063
     13 C         142.7689  135.9048  156.2434 C.ar    1  UNL1        0.2002
     14 N         143.3284  137.0038  157.0972 N.ar    1  UNL1       -0.2208
     15 C         142.4314  138.0991  157.5930 C.ar    1  UNL1        0.1194
     16 H         138.3698  137.7114  156.3483 H       1  UNL1        0.1438
     17 H         138.5913  136.2713  155.4625 H       1  UNL1        0.1438
     18 O         140.0778  139.1906  157.7306 O.3     1  UNL1       -0.4693
     19 C         139.3774  139.0473  159.0492 C.3     1  UNL1        0.2270
     20 C         138.5034  140.1549  159.5585 C.3     1  UNL1        0.1410
     21 C         137.8104  141.4583  161.6965 C.2     1  UNL1        0.2493
     22 O         138.0163  142.7557  160.9724 O.2     1  UNL1       -0.2699
     23 N         138.0539  140.1579  160.9896 N.am    1  UNL1       -0.2705
     24 C         137.8481  138.8605  161.7138 C.3     1  UNL1        0.1153
     25 C         138.2548  142.0228  164.1933 C.2     1  UNL1        0.0048
     26 C         137.3609  141.4613  163.1277 C.2     1  UNL1        0.0580
     27 N         143.6619  139.9725  162.2809 N.am    1  UNL1       -0.2805
     28 C         142.4526  140.2779  163.1142 C.2     1  UNL1        0.2517
     29 O         141.1878  140.7456  162.4573 O.2     1  UNL1       -0.2697
     30 H         144.4920  139.6655  162.7120 H       1  UNL1        0.1552
     31 C         142.5082  140.1156  164.6044 C.ar    1  UNL1        0.0810
     32 C         143.0443  138.8483  165.2013 C.ar    1  UNL1        0.0065
     33 C         143.0998  138.6860  166.6914 C.ar    1  UNL1       -0.0040
     34 C         142.6192  139.7910  167.5846 C.ar    1  UNL1       -0.0203
     35 C         142.0830  141.0584  166.9877 C.ar    1  UNL1        0.0255
     36 C         142.0275  141.2206  165.4976 C.ar    1  UNL1        0.1441
     37 F         141.4913  142.4880  164.9006 F       1  UNL1       -0.2040
     38 C         142.6747  139.6287  169.0749 C.3     1  UNL1        0.0224
     39 C         142.6149  138.7499  170.2889 C.3     1  UNL1        0.0047
     40 C         142.8308  140.2263  170.4418 C.3     1  UNL1        0.0047
@<TRIPOS>BOND
     1    25    26    2
     2    26    21    1
     3    21    22    2
     4    21    23   am
     5    23    24    1
     6    23    20    1
     7    20    19    1
     8    19    18    1
     9    18     9    1
    10     9    10   ar
    11    10    11    1
    12    10    12   ar
    13    12    13   ar
    14    13    14   ar
    15    14    15   ar
    16    15     1    1
    17     1     2   ar
    18     2     3   ar
    19     3     4    1
    20     3     5   ar
    21     5     6   ar
    22     6    27    1
    23    27    28   am
    24    28    29    2
    25    28    31    1
    26    31    32   ar
    27    32    33   ar
    28    33    34   ar
    29    34    38    1
    30    38    39    1
    31    39    40    1
    32    34    35   ar
    33    35    36   ar
    34    36    37    1
    35     6     7   ar
    36     7     8    1
    37    15     9   ar
    38     7     1   ar
    39    36    31   ar
    40    40    38    1
    41    11    16    1
    42    11    17    1
    43    27    30    1
@<TRIPOS>MOLECULE
*****
 40 43 0 0 0
SMALL
GASTEIGER

@<TRIPOS>ATOM
      1 C         139.9493  140.1405  158.4186 C.ar    1  UNL1        0.0203
      2 C         139.7668  141.5034  157.8193 C.ar    1  UNL1        0.0310
      3 C         139.3948  142.6637  158.6941 C.ar    1  UNL1        0.1414
      4 F         139.2123  144.0266  158.0947 F       1  UNL1       -0.2041
      5 C         139.2054  142.4612  160.1683 C.ar    1  UNL1        0.0440
      6 C         139.3879  141.0983  160.7676 C.ar    1  UNL1        0.0488
      7 C         139.7599  139.9379  159.8927 C.ar    1  UNL1       -0.0067
      8 C         139.9424  138.5750  160.4920 C.3     1  UNL1        0.0324
      9 C         141.7629  138.6059  157.3670 C.ar    1  UNL1        0.1870
     10 C         142.1348  137.4457  156.4922 C.ar    1  UNL1        0.1629
     11 N         143.5766  137.0714  156.3155 N.pl3   1  UNL1       -0.3401
     12 N         141.0649  136.6596  155.7940 N.ar    1  UNL1       -0.2063
     13 C         139.6232  137.0338  155.9707 C.ar    1  UNL1        0.2002
     14 N         139.2513  138.1941  156.8455 N.ar    1  UNL1       -0.2208
     15 C         140.3212  138.9802  157.5437 C.ar    1  UNL1        0.1194
     16 H         144.2788  137.5873  156.7737 H       1  UNL1        0.1438
     17 H         143.8207  136.3098  155.7412 H       1  UNL1        0.1438
     18 O         142.8328  139.3920  158.0652 O.3     1  UNL1       -0.4693
     19 C         143.3874  138.9076  159.3720 C.3     1  UNL1        0.2270
     20 C         143.7454  139.8919  160.4458 C.3     1  UNL1        0.1410
     21 C         144.6805  140.2164  162.8480 C.2     1  UNL1        0.2493
     22 O         145.4186  141.4412  162.3952 O.2     1  UNL1       -0.2699
     23 N         143.8439  139.4418  161.8733 N.am    1  UNL1       -0.2705
     24 C         143.1058  138.2169  162.3260 C.3     1  UNL1        0.1153
     25 C         143.6779  140.0893  165.2414 C.2     1  UNL1        0.0048
     26 C         144.7790  139.7662  164.2755 C.2     1  UNL1        0.0580
     27 N         139.1986  140.8957  162.2417 N.am    1  UNL1       -0.2805
     28 C         140.3057  141.2380  163.1941 C.2     1  UNL1        0.2517
     29 O         141.6022  141.7828  162.6723 O.2     1  UNL1       -0.2697
     30 H         138.3476  140.5381  162.5841 H       1  UNL1        0.1552
     31 C         140.1163  141.0354  164.6683 C.ar    1  UNL1        0.0810
     32 C         140.4697  142.1329  165.6276 C.ar    1  UNL1        0.0065
     33 C         140.2803  141.9303  167.1017 C.ar    1  UNL1       -0.0040
     34 C         139.7376  140.6301  167.6165 C.ar    1  UNL1       -0.0203
     35 C         139.3842  139.5326  166.6571 C.ar    1  UNL1        0.0255
     36 C         139.5736  139.7352  165.1830 C.ar    1  UNL1        0.1441
     37 F         139.2202  138.6376  164.2235 F       1  UNL1       -0.2040
     38 C         139.5482  140.4275  169.0907 C.3     1  UNL1        0.0224
     39 C         140.1086  140.0698  170.4353 C.3     1  UNL1        0.0047
     40 C         138.6599  140.4343  170.2993 C.3     1  UNL1        0.0047
@<TRIPOS>BOND
     1    25    26    2
     2    26    21    1
     3    21    22    2
     4    21    23   am
     5    23    24    1
     6    23    20    1
     7    20    19    1
     8    19    18    1
     9    18     9    1
    10     9    10   ar
    11    10    11    1
    12    10    12   ar
    13    12    13   ar
    14    13    14   ar
    15    14    15   ar
    16    15     1    1
    17     1     2   ar
    18     2     3   ar
    19     3     4    1
    20     3     5   ar
    21     5     6   ar
    22     6    27    1
    23    27    28   am
    24    28    29    2
    25    28    31    1
    26    31    32   ar
    27    32    33   ar
    28    33    34   ar
    29    34    38    1
    30    38    39    1
    31    39    40    1
    32    34    35   ar
    33    35    36   ar
    34    36    37    1
    35     6     7   ar
    36     7     8    1
    37    15     9   ar
    38     7     1   ar
    39    36    31   ar
    40    40    38    1
    41    11    16    1
    42    11    17    1
    43    27    30    1
@<TRIPOS>MOLECULE
*****
 40 43 0 0 0
SMALL
GASTEIGER

@<TRIPOS>ATOM
      1 C         142.7537  143.0070  159.0485 C.ar    1  UNL1        0.0203
      2 C         141.8568  144.0323  158.4207 C.ar    1  UNL1        0.0310
      3 C         141.0692  144.9706  159.2863 C.ar    1  UNL1        0.1414
      4 F         140.1722  145.9959  158.6585 F       1  UNL1       -0.2041
      5 C         141.1785  144.8835  160.7798 C.ar    1  UNL1        0.0440
      6 C         142.0754  143.8582  161.4077 C.ar    1  UNL1        0.0488
      7 C         142.8631  142.9199  160.5420 C.ar    1  UNL1       -0.0067
      8 C         143.7600  141.8945  161.1698 C.3     1  UNL1        0.0324
      9 C         142.9534  140.7495  157.7781 C.ar    1  UNL1        0.1870
     10 C         143.7410  139.8113  156.9125 C.ar    1  UNL1        0.1629
     11 N         143.1530  138.4919  156.5078 N.pl3   1  UNL1       -0.3401
     12 N         145.1166  140.1924  156.4515 N.ar    1  UNL1       -0.2063
     13 C         145.7046  141.5116  156.8561 C.ar    1  UNL1        0.2002
     14 N         144.9169  142.4498  157.7218 N.ar    1  UNL1       -0.2208
     15 C         143.5414  142.0687  158.1828 C.ar    1  UNL1        0.1194
     16 H         142.2502  138.2418  156.8103 H       1  UNL1        0.1438
     17 H         143.6700  137.8762  155.9396 H       1  UNL1        0.1438
     18 O         141.5778  140.3684  158.2391 O.3     1  UNL1       -0.4693
     19 C         141.4022  139.5761  159.5006 C.3     1  UNL1        0.2270
     20 C         140.2516  138.6230  159.6337 C.3     1  UNL1        0.1410
     21 C         139.7443  138.0072  162.1062 C.2     1  UNL1        0.2493
     22 O         141.0350  137.2467  162.1816 O.2     1  UNL1       -0.2699
     23 N         139.3526  138.6953  160.8323 N.am    1  UNL1       -0.2705
     24 C         138.0618  139.4558  160.7569 C.3     1  UNL1        0.1153
     25 C         139.3570  137.6641  164.6523 C.2     1  UNL1        0.0048
     26 C         138.8453  138.0795  163.3049 C.2     1  UNL1        0.0580
     27 N         142.1848  143.7710  162.9011 N.am    1  UNL1       -0.2805
     28 C         141.4222  142.7178  163.6487 C.2     1  UNL1        0.2517
     29 O         140.5502  141.7516  162.9029 O.2     1  UNL1       -0.2697
     30 H         142.7571  144.4052  163.3906 H       1  UNL1        0.1552
     31 C         141.5315  142.6306  165.1423 C.ar    1  UNL1        0.0810
     32 C         142.8478  142.2977  165.7798 C.ar    1  UNL1        0.0065
     33 C         142.9571  142.2106  167.2732 C.ar    1  UNL1       -0.0040
     34 C         141.7500  142.4563  168.1291 C.ar    1  UNL1       -0.0203
     35 C         140.4337  142.7892  167.4916 C.ar    1  UNL1        0.0255
     36 C         140.3245  142.8764  165.9982 C.ar    1  UNL1        0.1441
     37 F         139.0081  143.2093  165.3606 F       1  UNL1       -0.2040
     38 C         141.8594  142.3692  169.6227 C.3     1  UNL1        0.0224
     39 C         142.6230  142.6316  170.8868 C.3     1  UNL1        0.0047
     40 C         141.2851  141.9559  170.9453 C.3     1  UNL1        0.0047
@<TRIPOS>BOND
     1    25    26    2
     2    26    21    1
     3    21    22    2
     4    21    23   am
     5    23    24    1
     6    23    20    1
     7    20    19    1
     8    19    18    1
     9    18     9    1
    10     9    10   ar
    11    10    11    1
    12    10    12   ar
    13    12    13   ar
    14    13    14   ar
    15    14    15   ar
    16    15     1    1
    17     1     2   ar
    18     2     3   ar
    19     3     4    1
    20     3     5   ar
    21     5     6   ar
    22     6    27    1
    23    27    28   am
    24    28    29    2
    25    28    31    1
    26    31    32   ar
    27    32    33   ar
    28    33    34   ar
    29    34    38    1
    30    38    39    1
    31    39    40    1
    32    34    35   ar
    33    35    36   ar
    34    36    37    1
    35     6     7   ar
    36     7     8    1
    37    15     9   ar
    38     7     1   ar
    39    36    31   ar
    40    40    38    1
    41    11    16    1
    42    11    17    1
    43    27    30    1
@<TRIPOS>MOLECULE
*****
 40 43 0 0 0
SMALL
GASTEIGER

@<TRIPOS>ATOM
      1 C         140.9665  142.4874  166.5040 C.ar    1  UNL1        0.0203
      2 C         139.9132  143.5550  166.5354 C.ar    1  UNL1        0.0310
      3 C         139.3726  144.1132  165.2524 C.ar    1  UNL1        0.1414
      4 F         138.3194  145.1807  165.2837 F       1  UNL1       -0.2041
      5 C         139.8854  143.6039  163.9379 C.ar    1  UNL1        0.0440
      6 C         140.9387  142.5364  163.9066 C.ar    1  UNL1        0.0488
      7 C         141.4792  141.9781  165.1897 C.ar    1  UNL1       -0.0067
      8 C         142.5325  140.9106  165.1583 C.3     1  UNL1        0.0324
      9 C         140.6660  141.0039  168.6157 C.ar    1  UNL1        0.1870
     10 C         141.2065  140.4457  169.8987 C.ar    1  UNL1        0.1629
     11 N         140.3656  139.5204  170.7273 N.pl3   1  UNL1       -0.3401
     12 N         142.5881  140.8129  170.3532 N.ar    1  UNL1       -0.2063
     13 C         143.4290  141.7383  169.5247 C.ar    1  UNL1        0.2002
     14 N         142.8885  142.2964  168.2417 N.ar    1  UNL1       -0.2208
     15 C         141.5070  141.9292  167.7872 C.ar    1  UNL1        0.1194
     16 H         139.4588  139.2793  170.4290 H       1  UNL1        0.1438
     17 H         140.7203  139.1540  171.5694 H       1  UNL1        0.1438
     18 O         139.2845  140.6367  168.1611 O.3     1  UNL1       -0.4693
     19 C         139.0529  139.3462  167.4325 C.3     1  UNL1        0.2270
     20 C         139.9625  138.9454  166.3092 C.3     1  UNL1        0.1410
     21 C         139.9906  137.8918  163.9345 C.2     1  UNL1        0.2493
     22 O         141.0605  136.9356  164.3714 O.2     1  UNL1       -0.2699
     23 N         139.4416  138.8967  164.9033 N.am    1  UNL1       -0.2705
     24 C         138.3717  139.8530  164.4664 C.3     1  UNL1        0.1153
     25 C         140.3142  138.3513  161.3979 C.2     1  UNL1        0.0048
     26 C         139.4697  137.8431  162.5286 C.2     1  UNL1        0.0580
     27 N         141.4515  142.0270  162.5922 N.am    1  UNL1       -0.2805
     28 C         142.6774  142.6358  161.9787 C.2     1  UNL1        0.2517
     29 O         143.3907  143.7538  162.6797 O.2     1  UNL1       -0.2697
     30 H         140.9833  141.2932  162.1321 H       1  UNL1        0.1552
     31 C         143.1903  142.1265  160.6643 C.ar    1  UNL1        0.0810
     32 C         143.3772  143.0720  159.5150 C.ar    1  UNL1        0.0065
     33 C         143.8900  142.5627  158.2006 C.ar    1  UNL1       -0.0040
     34 C         144.2159  141.1078  158.0356 C.ar    1  UNL1       -0.0203
     35 C         144.0289  140.1623  159.1849 C.ar    1  UNL1        0.0255
     36 C         143.5161  140.6716  160.4993 C.ar    1  UNL1        0.1441
     37 F         143.3292  139.7261  161.6487 F       1  UNL1       -0.2040
     38 C         144.7287  140.5985  156.7211 C.3     1  UNL1        0.0224
     39 C         144.5755  139.7077  155.5241 C.3     1  UNL1        0.0047
     40 C         145.7701  140.6072  155.6416 C.3     1  UNL1        0.0047
@<TRIPOS>BOND
     1    25    26    2
     2    26    21    1
     3    21    22    2
     4    21    23   am
     5    23    24    1
     6    23    20    1
     7    20    19    1
     8    19    18    1
     9    18     9    1
    10     9    10   ar
    11    10    11    1
    12    10    12   ar
    13    12    13   ar
    14    13    14   ar
    15    14    15   ar
    16    15     1    1
    17     1     2   ar
    18     2     3   ar
    19     3     4    1
    20     3     5   ar
    21     5     6   ar
    22     6    27    1
    23    27    28   am
    24    28    29    2
    25    28    31    1
    26    31    32   ar
    27    32    33   ar
    28    33    34   ar
    29    34    38    1
    30    38    39    1
    31    39    40    1
    32    34    35   ar
    33    35    36   ar
    34    36    37    1
    35     6     7   ar
    36     7     8    1
    37    15     9   ar
    38     7     1   ar
    39    36    31   ar
    40    40    38    1
    41    11    16    1
    42    11    17    1
    43    27    30    1
@<TRIPOS>MOLECULE
*****
 40 43 0 0 0
SMALL
GASTEIGER

@<TRIPOS>ATOM
      1 C         139.2293  140.3213  158.3220 C.ar    1  UNL1        0.0203
      2 C         140.1811  139.3144  157.7473 C.ar    1  UNL1        0.0310
      3 C         141.1189  138.5685  158.6496 C.ar    1  UNL1        0.1414
      4 F         142.0706  137.5616  158.0748 F       1  UNL1       -0.2041
      5 C         141.1049  138.8295  160.1267 C.ar    1  UNL1        0.0440
      6 C         140.1531  139.8363  160.7014 C.ar    1  UNL1        0.0488
      7 C         139.2153  140.5822  159.7991 C.ar    1  UNL1       -0.0067
      8 C         138.2636  141.5891  160.3738 C.3     1  UNL1        0.0324
      9 C         138.6852  142.4064  156.8708 C.ar    1  UNL1        0.1870
     10 C         137.7474  143.1523  155.9684 C.ar    1  UNL1        0.1629
     11 N         138.1412  144.4916  155.4195 N.pl3   1  UNL1       -0.3401
     12 N         136.4159  142.5588  155.6150 N.ar    1  UNL1       -0.2063
     13 C         136.0222  141.2196  156.1639 C.ar    1  UNL1        0.2002
     14 N         136.9600  140.4738  157.0663 N.ar    1  UNL1       -0.2208
     15 C         138.2915  141.0672  157.4197 C.ar    1  UNL1        0.1194
     16 H         139.0151  144.8811  155.6514 H       1  UNL1        0.1438
     17 H         137.5256  144.9811  154.8273 H       1  UNL1        0.1438
     18 O         140.0168  142.9998  157.2242 O.3     1  UNL1       -0.4693
     19 C         140.1306  143.9548  158.3753 C.3     1  UNL1        0.2270
     20 C         141.1779  143.7398  159.4274 C.3     1  UNL1        0.1410
     21 C         141.4745  143.4084  161.9871 C.2     1  UNL1        0.2493
     22 O         142.2598  142.1557  161.7339 O.2     1  UNL1       -0.2699
     23 N         140.9336  144.2005  160.8339 N.am    1  UNL1       -0.2705
     24 C         140.1484  145.4532  161.0871 C.3     1  UNL1        0.1153
     25 C         140.1006  143.2847  164.1887 C.2     1  UNL1        0.0048
     26 C         141.2303  143.8691  163.3937 C.2     1  UNL1        0.0580
     27 N         140.1391  140.0973  162.1785 N.am    1  UNL1       -0.2805
     28 C         139.6044  139.0581  163.1186 C.2     1  UNL1        0.2517
     29 O         139.0836  137.7579  162.5818 O.2     1  UNL1       -0.2697
     30 H         140.4810  140.9507  162.5308 H       1  UNL1        0.1552
     31 C         139.5904  139.3190  164.5957 C.ar    1  UNL1        0.0810
     32 C         138.3698  138.9913  165.4037 C.ar    1  UNL1        0.0065
     33 C         138.3559  139.2522  166.8807 C.ar    1  UNL1       -0.0040
     34 C         139.5624  139.8409  167.5498 C.ar    1  UNL1       -0.0203
     35 C         140.7830  140.1687  166.7418 C.ar    1  UNL1        0.0255
     36 C         140.7969  139.9077  165.2648 C.ar    1  UNL1        0.1441
     37 F         142.0175  140.2354  164.4568 F       1  UNL1       -0.2040
     38 C         139.5484  140.1019  169.0269 C.3     1  UNL1        0.0224
     39 C         138.8306  140.5768  170.2554 C.3     1  UNL1        0.0047
     40 C         140.2419  140.0789  170.3568 C.3     1  UNL1        0.0047
@<TRIPOS>BOND
     1    25    26    2
     2    26    21    1
     3    21    22    2
     4    21    23   am
     5    23    24    1
     6    23    20    1
     7    20    19    1
     8    19    18    1
     9    18     9    1
    10     9    10   ar
    11    10    11    1
    12    10    12   ar
    13    12    13   ar
    14    13    14   ar
    15    14    15   ar
    16    15     1    1
    17     1     2   ar
    18     2     3   ar
    19     3     4    1
    20     3     5   ar
    21     5     6   ar
    22     6    27    1
    23    27    28   am
    24    28    29    2
    25    28    31    1
    26    31    32   ar
    27    32    33   ar
    28    33    34   ar
    29    34    38    1
    30    38    39    1
    31    39    40    1
    32    34    35   ar
    33    35    36   ar
    34    36    37    1
    35     6     7   ar
    36     7     8    1
    37    15     9   ar
    38     7     1   ar
    39    36    31   ar
    40    40    38    1
    41    11    16    1
    42    11    17    1
    43    27    30    1
@<TRIPOS>MOLECULE
*****
 40 43 0 0 0
SMALL
GASTEIGER

@<TRIPOS>ATOM
      1 C         141.1805  139.6067  165.5551 C.ar    1  UNL1        0.0203
      2 C         140.0125  138.6913  165.3368 C.ar    1  UNL1        0.0310
      3 C         139.7590  138.1101  163.9774 C.ar    1  UNL1        0.1414
      4 F         138.5909  137.1947  163.7590 F       1  UNL1       -0.2041
      5 C         140.6735  138.4443  162.8363 C.ar    1  UNL1        0.0440
      6 C         141.8416  139.3597  163.0547 C.ar    1  UNL1        0.0488
      7 C         142.0951  139.9409  164.4142 C.ar    1  UNL1       -0.0067
      8 C         143.2631  140.8563  164.6325 C.3     1  UNL1        0.0324
      9 C         140.8037  141.4927  167.3019 C.ar    1  UNL1        0.1870
     10 C         141.0573  142.0738  168.6612 C.ar    1  UNL1        0.1629
     11 N         140.4270  143.3788  169.0486 N.pl3   1  UNL1       -0.3401
     12 N         141.9411  141.3501  169.6334 N.ar    1  UNL1       -0.2063
     13 C         142.5714  140.0452  169.2461 C.ar    1  UNL1        0.2002
     14 N         142.3179  139.4641  167.8867 N.ar    1  UNL1       -0.2208
     15 C         141.4340  140.1879  166.9146 C.ar    1  UNL1        0.1194
     16 H         139.8469  143.8538  168.4105 H       1  UNL1        0.1438
     17 H         140.5933  143.7602  169.9408 H       1  UNL1        0.1438
     18 O         139.9199  142.2165  166.3297 O.3     1  UNL1       -0.4693
     19 C         140.4807  143.3229  165.4863 C.3     1  UNL1        0.2270
     20 C         139.7280  143.8022  164.2807 C.3     1  UNL1        0.1410
     21 C         139.8658  144.6253  161.8203 C.2     1  UNL1        0.2493
     22 O         138.5733  143.9282  161.5147 O.2     1  UNL1       -0.2699
     23 N         140.4432  144.5623  163.2032 N.am    1  UNL1       -0.2705
     24 C         141.7357  145.2595  163.5089 C.3     1  UNL1        0.1153
     25 C         140.6956  144.8043  159.3648 C.2     1  UNL1        0.0048
     26 C         140.5810  145.3854  160.7428 C.2     1  UNL1        0.0580
     27 N         142.7561  139.6940  161.9137 N.am    1  UNL1       -0.2805
     28 C         142.3779  140.7704  160.9400 C.2     1  UNL1        0.2517
     29 O         141.0851  141.5126  161.1073 O.2     1  UNL1       -0.2697
     30 H         143.6046  139.2069  161.8039 H       1  UNL1        0.1552
     31 C         143.2924  141.1047  159.7989 C.ar    1  UNL1        0.0810
     32 C         143.5029  140.1149  158.6917 C.ar    1  UNL1        0.0065
     33 C         144.4174  140.4493  157.5508 C.ar    1  UNL1       -0.0040
     34 C         145.1214  141.7734  157.5170 C.ar    1  UNL1       -0.0203
     35 C         144.9109  142.7632  158.6242 C.ar    1  UNL1        0.0255
     36 C         143.9964  142.4288  159.7652 C.ar    1  UNL1        0.1441
     37 F         143.7858  143.4187  160.8725 F       1  UNL1       -0.2040
     38 C         146.0360  142.1077  156.3759 C.3     1  UNL1        0.0224
     39 C         147.3104  142.7132  155.8671 C.3     1  UNL1        0.0047
     40 C         146.3454  142.0811  154.9085 C.3     1  UNL1        0.0047
@<TRIPOS>BOND
     1    25    26    2
     2    26    21    1
     3    21    22    2
     4    21    23   am
     5    23    24    1
     6    23    20    1
     7    20    19    1
     8    19    18    1
     9    18     9    1
    10     9    10   ar
    11    10    11    1
    12    10    12   ar
    13    12    13   ar
    14    13    14   ar
    15    14    15   ar
    16    15     1    1
    17     1     2   ar
    18     2     3   ar
    19     3     4    1
    20     3     5   ar
    21     5     6   ar
    22     6    27    1
    23    27    28   am
    24    28    29    2
    25    28    31    1
    26    31    32   ar
    27    32    33   ar
    28    33    34   ar
    29    34    38    1
    30    38    39    1
    31    39    40    1
    32    34    35   ar
    33    35    36   ar
    34    36    37    1
    35     6     7   ar
    36     7     8    1
    37    15     9   ar
    38     7     1   ar
    39    36    31   ar
    40    40    38    1
    41    11    16    1
    42    11    17    1
    43    27    30    1
@<TRIPOS>MOLECULE
*****
 40 43 0 0 0
SMALL
GASTEIGER

@<TRIPOS>ATOM
      1 C         143.7503  141.6869  159.9851 C.ar    1  UNL1        0.0203
      2 C         143.6130  142.8553  159.0546 C.ar    1  UNL1        0.0310
      3 C         143.4446  142.6255  157.5819 C.ar    1  UNL1        0.1414
      4 F         143.3074  143.7940  156.6514 F       1  UNL1       -0.2041
      5 C         143.4135  141.2272  157.0397 C.ar    1  UNL1        0.0440
      6 C         143.5508  140.0588  157.9703 C.ar    1  UNL1        0.0488
      7 C         143.7192  140.2887  159.4430 C.ar    1  UNL1       -0.0067
      8 C         143.8564  139.1202  160.3736 C.3     1  UNL1        0.0324
      9 C         142.7389  142.3142  162.2946 C.ar    1  UNL1        0.1870
     10 C         142.9072  142.5440  163.7673 C.ar    1  UNL1        0.1629
     11 N         141.7275  142.9414  164.6041 N.pl3   1  UNL1       -0.3401
     12 N         144.2554  142.3764  164.4032 N.ar    1  UNL1       -0.2063
     13 C         145.4352  141.9790  163.5665 C.ar    1  UNL1        0.2002
     14 N         145.2668  141.7491  162.0938 N.ar    1  UNL1       -0.2208
     15 C         143.9186  141.9167  161.4579 C.ar    1  UNL1        0.1194
     16 H         140.8426  143.0514  164.1867 H       1  UNL1        0.1438
     17 H         141.8380  143.0923  165.5707 H       1  UNL1        0.1438
     18 O         141.3907  142.4818  161.6587 O.3     1  UNL1       -0.4693
     19 C         140.4174  141.3405  161.6523 C.3     1  UNL1        0.2270
     20 C         138.9553  141.6005  161.8636 C.3     1  UNL1        0.1410
     21 C         138.2602  143.6076  163.3599 C.2     1  UNL1        0.2493
     22 O         138.5342  144.5489  162.2246 O.2     1  UNL1       -0.2699
     23 N         138.4708  142.1335  163.1795 N.am    1  UNL1       -0.2705
     24 C         138.1968  141.1922  164.3148 C.3     1  UNL1        0.1153
     25 C         138.6983  144.9413  165.5461 C.2     1  UNL1        0.0048
     26 C         137.7758  144.1405  164.6757 C.2     1  UNL1        0.0580
     27 N         143.5197  138.6606  157.4281 N.am    1  UNL1       -0.2805
     28 C         142.2224  137.9106  157.3618 C.2     1  UNL1        0.2517
     29 O         140.9562  138.5589  157.8376 O.2     1  UNL1       -0.2697
     30 H         144.3508  138.2351  157.1159 H       1  UNL1        0.1552
     31 C         142.1913  136.5123  156.8197 C.ar    1  UNL1        0.0810
     32 C         143.1223  135.4734  157.3707 C.ar    1  UNL1        0.0065
     33 C         143.0912  134.0751  156.8286 C.ar    1  UNL1       -0.0040
     34 C         142.1289  133.7159  155.7354 C.ar    1  UNL1       -0.0203
     35 C         141.1979  134.7548  155.1844 C.ar    1  UNL1        0.0255
     36 C         141.2290  136.1530  155.7265 C.ar    1  UNL1        0.1441
     37 F         140.2979  137.1920  155.1755 F       1  UNL1       -0.2040
     38 C         142.0978  132.3176  155.1932 C.3     1  UNL1        0.0224
     39 C         141.3878  131.0080  155.0173 C.3     1  UNL1        0.0047
     40 C         142.7539  131.2052  154.4302 C.3     1  UNL1        0.0047
@<TRIPOS>BOND
     1    25    26    2
     2    26    21    1
     3    21    22    2
     4    21    23   am
     5    23    24    1
     6    23    20    1
     7    20    19    1
     8    19    18    1
     9    18     9    1
    10     9    10   ar
    11    10    11    1
    12    10    12   ar
    13    12    13   ar
    14    13    14   ar
    15    14    15   ar
    16    15     1    1
    17     1     2   ar
    18     2     3   ar
    19     3     4    1
    20     3     5   ar
    21     5     6   ar
    22     6    27    1
    23    27    28   am
    24    28    29    2
    25    28    31    1
    26    31    32   ar
    27    32    33   ar
    28    33    34   ar
    29    34    38    1
    30    38    39    1
    31    39    40    1
    32    34    35   ar
    33    35    36   ar
    34    36    37    1
    35     6     7   ar
    36     7     8    1
    37    15     9   ar
    38     7     1   ar
    39    36    31   ar
    40    40    38    1
    41    11    16    1
    42    11    17    1
    43    27    30    1
