@<TRIPOS>MOLECULE
*****
 44 48 0 0 0
SMALL
GASTEIGER

@<TRIPOS>ATOM
      1 C         141.3130  140.9174  162.4710 C.3     1  UNL1        0.0807
      2 C         141.3812  140.6475  163.9450 C.ar    1  UNL1        0.0375
      3 C         141.0263  141.7283  164.9226 C.ar    1  UNL1        0.0023
      4 C         141.0945  141.4584  166.3966 C.ar    1  UNL1        0.0181
      5 C         140.7396  142.5393  167.3742 C.ar    1  UNL1        0.0082
      6 C         140.8078  142.2694  168.8481 C.ar    1  UNL1        0.0347
      7 BR        140.4528  143.3503  169.8257 Br      1  UNL1       -0.0490
      8 C         141.2309  140.9186  169.3444 C.ar    1  UNL1        0.0082
      9 C         141.5858  139.8377  168.3668 C.ar    1  UNL1        0.0197
     10 C         141.5176  140.1077  166.8929 C.ar    1  UNL1        0.0844
     11 N         141.8726  139.0268  165.9152 N.ar    1  UNL1       -0.2119
     12 C         141.8043  139.2967  164.4413 C.ar    1  UNL1        0.2211
     13 O         142.1593  138.2158  163.4636 O.3     1  UNL1       -0.4563
     14 C         140.9968  137.2678  163.4555 C.3     1  UNL1        0.2542
     15 C         140.1171  140.4736  161.6818 C.ar    1  UNL1        0.0213
     16 C         138.7360  140.8129  162.1585 C.ar    1  UNL1       -0.0007
     17 C         137.5400  140.3691  161.3693 C.ar    1  UNL1        0.0030
     18 C         137.7253  139.5860  160.1034 C.ar    1  UNL1        0.0400
     19 C         139.1065  139.2467  159.6268 C.ar    1  UNL1        0.1721
     20 C         140.3024  139.6905  160.4159 C.ar    1  UNL1        0.1687
     21 O         141.6835  139.3512  159.9393 O.3     1  UNL1       -0.4687
     22 C         141.8688  138.5681  158.6734 C.3     1  UNL1        0.2526
     23 C         140.6729  138.1243  157.8842 C.3     1  UNL1        0.2526
     24 O         139.2918  138.4636  158.3609 O.3     1  UNL1       -0.4684
     25 C         142.4407  141.6311  161.7863 C.3     1  UNL1        0.1162
     26 O         143.3520  140.4776  162.0849 O.3     1  UNL1       -0.3820
     27 H         144.2360  140.6641  161.7317 H       1  UNL1        0.2107
     28 C         140.2982  144.2924  159.7672 C.ar    1  UNL1        0.2271
     29 C         141.2095  143.1390  160.0658 C.ar    1  UNL1        0.0559
     30 C         141.5295  142.7845  161.4877 C.ar    1  UNL1        0.0117
     31 C         140.9382  143.5835  162.6110 C.ar    1  UNL1        0.0559
     32 C         140.0269  144.7370  162.3124 C.ar    1  UNL1        0.2271
     33 N         139.7069  145.0914  160.8905 N.ar    1  UNL1       -0.1767
     34 O         139.9783  144.6469  158.3452 O.3     1  UNL1       -0.4602
     35 C         142.0822  145.8974  157.4736 C.3     1  UNL1        0.0512
     36 C         140.6023  145.8567  157.7151 C.3     1  UNL1        0.2072
     37 O         139.4356  145.5360  163.4359 O.3     1  UNL1       -0.4602
     38 C         138.9230  144.8406  164.6621 C.3     1  UNL1        0.2072
     39 C         137.8972  143.7536  164.5343 C.3     1  UNL1        0.0512
     40 C         143.5685  142.3448  161.1015 C.3     1  UNL1        0.0491
     41 C         144.5201  143.1844  161.9011 C.3     1  UNL1        0.0750
     42 N         144.8416  142.8109  163.3178 N.3     1  UNL1       -0.2702
     43 C         144.1723  143.5276  164.4528 C.3     1  UNL1        0.0897
     44 C         145.8325  141.7206  163.5995 C.3     1  UNL1        0.0897
@<TRIPOS>BOND
     1    35    36    1
     2    36    34    1
     3    34    28    1
     4    28    29   ar
     5    29    30   ar
     6    30    25    1
     7    25    26    1
     8    25    40    1
     9    40    41    1
    10    41    42    1
    11    42    43    1
    12    42    44    1
    13    25     1    1
    14     1     2    1
    15     2     3   ar
    16     3     4   ar
    17     4     5   ar
    18     5     6   ar
    19     6     7    1
    20     6     8   ar
    21     8     9   ar
    22     9    10   ar
    23    10    11   ar
    24    11    12   ar
    25    12    13    1
    26    13    14    1
    27     1    15    1
    28    15    16   ar
    29    16    17   ar
    30    17    18   ar
    31    18    19   ar
    32    19    20   ar
    33    20    21    1
    34    21    22    1
    35    22    23    1
    36    23    24    1
    37    30    31   ar
    38    31    32   ar
    39    32    37    1
    40    37    38    1
    41    38    39    1
    42    32    33   ar
    43    33    28   ar
    44    12     2   ar
    45    20    15   ar
    46    10     4   ar
    47    24    19    1
    48    26    27    1
@<TRIPOS>MOLECULE
*****
 44 48 0 0 0
SMALL
GASTEIGER

@<TRIPOS>ATOM
      1 C         141.2821  140.9237  162.5307 C.3     1  UNL1        0.0807
      2 C         141.3788  140.6478  164.0020 C.ar    1  UNL1        0.0375
      3 C         141.0010  141.7106  164.9908 C.ar    1  UNL1        0.0023
      4 C         141.0976  141.4347  166.4620 C.ar    1  UNL1        0.0181
      5 C         140.7199  142.4975  167.4508 C.ar    1  UNL1        0.0082
      6 C         140.8165  142.2216  168.9220 C.ar    1  UNL1        0.0347
      7 BR        140.4387  143.2844  169.9109 Br      1  UNL1       -0.0490
      8 C         141.2909  140.8828  169.4044 C.ar    1  UNL1        0.0082
      9 C         141.6687  139.8200  168.4157 C.ar    1  UNL1        0.0197
     10 C         141.5720  140.0960  166.9445 C.ar    1  UNL1        0.0844
     11 N         141.9498  139.0331  165.9556 N.ar    1  UNL1       -0.2119
     12 C         141.8532  139.3091  164.4844 C.ar    1  UNL1        0.2211
     13 O         142.2309  138.2462  163.4956 O.3     1  UNL1       -0.4563
     14 C         141.0930  137.2690  163.4842 C.3     1  UNL1        0.2542
     15 C         140.0833  140.4598  161.7578 C.ar    1  UNL1        0.0213
     16 C         138.7032  140.7720  162.2556 C.ar    1  UNL1       -0.0007
     17 C         137.5043  140.3080  161.4826 C.ar    1  UNL1        0.0030
     18 C         137.6855  139.5319  160.2119 C.ar    1  UNL1        0.0400
     19 C         139.0657  139.2196  159.7141 C.ar    1  UNL1        0.1721
     20 C         140.2645  139.6836  160.4871 C.ar    1  UNL1        0.1687
     21 O         141.6446  139.3713  159.9893 O.3     1  UNL1       -0.4687
     22 C         141.8258  138.5951  158.7186 C.3     1  UNL1        0.2526
     23 C         140.6270  138.1312  157.9457 C.3     1  UNL1        0.2526
     24 O         139.2469  138.4434  158.4434 O.3     1  UNL1       -0.4684
     25 C         142.3844  141.6636  161.8324 C.3     1  UNL1        0.1162
     26 O         143.3115  140.5092  162.0728 O.3     1  UNL1       -0.3820
     27 H         144.1834  140.7114  161.6989 H       1  UNL1        0.2107
     28 C         140.0023  144.7644  162.5108 C.ar    1  UNL1        0.2271
     29 C         140.9295  143.6101  162.7513 C.ar    1  UNL1        0.0559
     30 C         141.4573  142.8180  161.5920 C.ar    1  UNL1        0.0117
     31 C         141.0579  143.1802  160.1923 C.ar    1  UNL1        0.0559
     32 C         140.1308  144.3346  159.9519 C.ar    1  UNL1        0.2271
     33 N         139.6030  145.1267  161.1111 N.ar    1  UNL1       -0.1767
     34 O         139.4746  145.5566  163.6702 O.3     1  UNL1       -0.4602
     35 C         137.8485  143.7710  164.6283 C.3     1  UNL1        0.0512
     36 C         138.8666  144.8508  164.8460 C.3     1  UNL1        0.2072
     37 O         139.7314  144.6969  158.5521 O.3     1  UNL1       -0.4602
     38 C         140.4327  145.8137  157.8373 C.3     1  UNL1        0.2072
     39 C         141.9317  145.8514  157.7930 C.3     1  UNL1        0.0512
     40 C         143.4867  142.4034  161.1341 C.3     1  UNL1        0.0491
     41 C         144.4543  143.2309  161.9272 C.3     1  UNL1        0.0750
     42 N         144.8218  142.8229  163.3231 N.3     1  UNL1       -0.2702
     43 C         145.8276  141.7326  163.5455 C.3     1  UNL1        0.0897
     44 C         144.1834  143.5052  164.4965 C.3     1  UNL1        0.0897
@<TRIPOS>BOND
     1    35    36    1
     2    36    34    1
     3    34    28    1
     4    28    29   ar
     5    29    30   ar
     6    30    25    1
     7    25    26    1
     8    25    40    1
     9    40    41    1
    10    41    42    1
    11    42    43    1
    12    42    44    1
    13    25     1    1
    14     1     2    1
    15     2     3   ar
    16     3     4   ar
    17     4     5   ar
    18     5     6   ar
    19     6     7    1
    20     6     8   ar
    21     8     9   ar
    22     9    10   ar
    23    10    11   ar
    24    11    12   ar
    25    12    13    1
    26    13    14    1
    27     1    15    1
    28    15    16   ar
    29    16    17   ar
    30    17    18   ar
    31    18    19   ar
    32    19    20   ar
    33    20    21    1
    34    21    22    1
    35    22    23    1
    36    23    24    1
    37    30    31   ar
    38    31    32   ar
    39    32    37    1
    40    37    38    1
    41    38    39    1
    42    32    33   ar
    43    33    28   ar
    44    12     2   ar
    45    20    15   ar
    46    10     4   ar
    47    24    19    1
    48    26    27    1
@<TRIPOS>MOLECULE
*****
 44 48 0 0 0
SMALL
GASTEIGER

@<TRIPOS>ATOM
      1 C         142.2916  141.1590  163.1365 C.3     1  UNL1        0.0807
      2 C         142.4924  141.4691  164.5903 C.ar    1  UNL1        0.0375
      3 C         141.6466  140.7892  165.6259 C.ar    1  UNL1        0.0023
      4 C         141.8474  141.0992  167.0798 C.ar    1  UNL1        0.0181
      5 C         141.0017  140.4193  168.1154 C.ar    1  UNL1        0.0082
      6 C         141.2025  140.7293  169.5691 C.ar    1  UNL1        0.0347
      7 BR        140.3567  140.0494  170.6048 Br      1  UNL1       -0.0490
      8 C         142.2490  141.7192  169.9873 C.ar    1  UNL1        0.0082
      9 C         143.0947  142.3991  168.9518 C.ar    1  UNL1        0.0197
     10 C         142.8939  142.0891  167.4980 C.ar    1  UNL1        0.0844
     11 N         143.7397  142.7690  166.4623 N.ar    1  UNL1       -0.2119
     12 C         143.5389  142.4590  165.0085 C.ar    1  UNL1        0.2211
     13 O         144.3846  143.1389  163.9729 O.3     1  UNL1       -0.4563
     14 C         143.8910  144.5534  163.8998 C.3     1  UNL1        0.2542
     15 C         141.6454  142.1700  162.2363 C.ar    1  UNL1        0.0213
     16 C         142.3514  142.6286  160.9949 C.ar    1  UNL1       -0.0007
     17 C         141.7052  143.6396  160.0946 C.ar    1  UNL1        0.0030
     18 C         140.3530  144.1920  160.4359 C.ar    1  UNL1        0.0400
     19 C         139.6470  143.7334  161.6775 C.ar    1  UNL1        0.1721
     20 C         140.2932  142.7224  162.5776 C.ar    1  UNL1        0.1687
     21 O         139.5872  142.2638  163.8190 O.3     1  UNL1       -0.4687
     22 C         138.2350  142.8162  164.1603 C.3     1  UNL1        0.2526
     23 C         137.5888  143.8271  163.2602 C.3     1  UNL1        0.2526
     24 O         138.2948  144.2857  162.0187 O.3     1  UNL1       -0.4684
     25 C         142.7370  139.8380  162.5828 C.3     1  UNL1        0.1162
     26 O         144.1643  140.2964  162.6375 O.3     1  UNL1       -0.3820
     27 H         144.7435  139.5898  162.3118 H       1  UNL1        0.2107
     28 C         139.0473  139.2125  161.2622 C.ar    1  UNL1        0.2271
     29 C         140.4745  139.6708  161.3169 C.ar    1  UNL1        0.0559
     30 C         141.3098  139.3797  162.5282 C.ar    1  UNL1        0.0117
     31 C         140.7180  138.6302  163.6848 C.ar    1  UNL1        0.0559
     32 C         139.2908  138.1718  163.6302 C.ar    1  UNL1        0.2271
     33 N         138.4554  138.4630  162.4188 N.ar    1  UNL1       -0.1767
     34 O         138.2119  139.5037  160.0508 O.3     1  UNL1       -0.4602
     35 C         138.4340  141.6208  158.5614 C.3     1  UNL1        0.0512
     36 C         138.8191  140.2048  158.8719 C.3     1  UNL1        0.2072
     37 O         138.6990  137.4222  164.7869 O.3     1  UNL1       -0.4602
     38 C         138.3873  138.1412  166.0659 C.3     1  UNL1        0.2072
     39 C         138.0636  139.6057  166.0434 C.3     1  UNL1        0.0512
     40 C         143.1825  138.5170  162.0292 C.3     1  UNL1        0.0491
     41 C         144.0712  138.4711  160.8218 C.3     1  UNL1        0.0750
     42 N         143.5212  138.8247  159.4718 N.3     1  UNL1       -0.2702
     43 C         143.8435  140.1536  158.8552 C.3     1  UNL1        0.0897
     44 C         142.6490  137.8494  158.7384 C.3     1  UNL1        0.0897
@<TRIPOS>BOND
     1    35    36    1
     2    36    34    1
     3    34    28    1
     4    28    29   ar
     5    29    30   ar
     6    30    25    1
     7    25    26    1
     8    25    40    1
     9    40    41    1
    10    41    42    1
    11    42    43    1
    12    42    44    1
    13    25     1    1
    14     1     2    1
    15     2     3   ar
    16     3     4   ar
    17     4     5   ar
    18     5     6   ar
    19     6     7    1
    20     6     8   ar
    21     8     9   ar
    22     9    10   ar
    23    10    11   ar
    24    11    12   ar
    25    12    13    1
    26    13    14    1
    27     1    15    1
    28    15    16   ar
    29    16    17   ar
    30    17    18   ar
    31    18    19   ar
    32    19    20   ar
    33    20    21    1
    34    21    22    1
    35    22    23    1
    36    23    24    1
    37    30    31   ar
    38    31    32   ar
    39    32    37    1
    40    37    38    1
    41    38    39    1
    42    32    33   ar
    43    33    28   ar
    44    12     2   ar
    45    20    15   ar
    46    10     4   ar
    47    24    19    1
    48    26    27    1
@<TRIPOS>MOLECULE
*****
 44 48 0 0 0
SMALL
GASTEIGER

@<TRIPOS>ATOM
      1 C         142.2196  141.0613  163.1324 C.3     1  UNL1        0.0807
      2 C         142.4539  141.3990  164.5750 C.ar    1  UNL1        0.0375
      3 C         141.6209  140.7523  165.6416 C.ar    1  UNL1        0.0023
      4 C         141.8552  141.0900  167.0843 C.ar    1  UNL1        0.0181
      5 C         141.0222  140.4432  168.1509 C.ar    1  UNL1        0.0082
      6 C         141.2565  140.7810  169.5934 C.ar    1  UNL1        0.0347
      7 BR        140.4234  140.1342  170.6601 Br      1  UNL1       -0.0490
      8 C         142.3240  141.7654  169.9693 C.ar    1  UNL1        0.0082
      9 C         143.1571  142.4122  168.9027 C.ar    1  UNL1        0.0197
     10 C         142.9227  142.0745  167.4602 C.ar    1  UNL1        0.0844
     11 N         143.7558  142.7212  166.3935 N.ar    1  UNL1       -0.2119
     12 C         143.5214  142.3835  164.9510 C.ar    1  UNL1        0.2211
     13 O         144.3545  143.0302  163.8843 O.3     1  UNL1       -0.4563
     14 C         143.9069  144.4605  163.8207 C.3     1  UNL1        0.2542
     15 C         141.5504  142.0541  162.2288 C.ar    1  UNL1        0.0213
     16 C         142.2184  142.4773  160.9542 C.ar    1  UNL1       -0.0007
     17 C         141.5492  143.4702  160.0506 C.ar    1  UNL1        0.0030
     18 C         140.2121  144.0398  160.4216 C.ar    1  UNL1        0.0400
     19 C         139.5442  143.6166  161.6963 C.ar    1  UNL1        0.1721
     20 C         140.2133  142.6237  162.5999 C.ar    1  UNL1        0.1687
     21 O         139.5454  142.2006  163.8745 O.3     1  UNL1       -0.4687
     22 C         138.2083  142.7702  164.2456 C.3     1  UNL1        0.2526
     23 C         137.5391  143.7630  163.3420 C.3     1  UNL1        0.2526
     24 O         138.2071  144.1862  162.0674 O.3     1  UNL1       -0.4684
     25 C         142.6544  139.7307  162.5934 C.3     1  UNL1        0.1162
     26 O         144.0756  140.2091  162.5590 O.3     1  UNL1       -0.3820
     27 H         144.6471  139.5010  162.2230 H       1  UNL1        0.2107
     28 C         139.3015  138.0248  163.8574 C.ar    1  UNL1        0.2271
     29 C         140.7227  138.5031  163.8229 C.ar    1  UNL1        0.0559
     30 C         141.2331  139.2523  162.6279 C.ar    1  UNL1        0.0117
     31 C         140.3223  139.5231  161.4673 C.ar    1  UNL1        0.0559
     32 C         138.9011  139.0447  161.5017 C.ar    1  UNL1        0.2271
     33 N         138.3906  138.2955  162.6968 N.ar    1  UNL1       -0.1767
     34 O         138.7910  137.2756  165.0525 O.3     1  UNL1       -0.4602
     35 C         138.0709  139.5168  166.1516 C.3     1  UNL1        0.0512
     36 C         138.1476  138.0192  166.1852 C.3     1  UNL1        0.2072
     37 O         137.9902  139.3155  160.3410 O.3     1  UNL1       -0.4602
     38 C         138.2079  140.5268  159.4836 C.3     1  UNL1        0.2072
     39 C         138.9625  140.4063  158.1928 C.3     1  UNL1        0.0512
     40 C         143.0892  138.4001  162.0545 C.3     1  UNL1        0.0491
     41 C         143.9784  138.3338  160.8483 C.3     1  UNL1        0.0750
     42 N         143.4725  138.8039  159.5168 N.3     1  UNL1       -0.2702
     43 C         142.4961  137.9652  158.7467 C.3     1  UNL1        0.0897
     44 C         143.9430  140.1128  158.9553 C.3     1  UNL1        0.0897
@<TRIPOS>BOND
     1    35    36    1
     2    36    34    1
     3    34    28    1
     4    28    29   ar
     5    29    30   ar
     6    30    25    1
     7    25    26    1
     8    25    40    1
     9    40    41    1
    10    41    42    1
    11    42    43    1
    12    42    44    1
    13    25     1    1
    14     1     2    1
    15     2     3   ar
    16     3     4   ar
    17     4     5   ar
    18     5     6   ar
    19     6     7    1
    20     6     8   ar
    21     8     9   ar
    22     9    10   ar
    23    10    11   ar
    24    11    12   ar
    25    12    13    1
    26    13    14    1
    27     1    15    1
    28    15    16   ar
    29    16    17   ar
    30    17    18   ar
    31    18    19   ar
    32    19    20   ar
    33    20    21    1
    34    21    22    1
    35    22    23    1
    36    23    24    1
    37    30    31   ar
    38    31    32   ar
    39    32    37    1
    40    37    38    1
    41    38    39    1
    42    32    33   ar
    43    33    28   ar
    44    12     2   ar
    45    20    15   ar
    46    10     4   ar
    47    24    19    1
    48    26    27    1
@<TRIPOS>MOLECULE
*****
 44 48 0 0 0
SMALL
GASTEIGER

@<TRIPOS>ATOM
      1 C         140.6176  140.6876  162.9283 C.3     1  UNL1        0.0807
      2 C         140.3667  140.5382  164.3996 C.ar    1  UNL1        0.0375
      3 C         140.5862  141.7022  165.3198 C.ar    1  UNL1        0.0023
      4 C         140.3353  141.5529  166.7912 C.ar    1  UNL1        0.0181
      5 C         140.5548  142.7169  167.7114 C.ar    1  UNL1        0.0082
      6 C         140.3039  142.5675  169.1827 C.ar    1  UNL1        0.0347
      7 BR        140.5234  143.7315  170.1030 Br      1  UNL1       -0.0490
      8 C         139.8336  141.2540  169.7337 C.ar    1  UNL1        0.0082
      9 C         139.6141  140.0900  168.8135 C.ar    1  UNL1        0.0197
     10 C         139.8650  140.2394  167.3422 C.ar    1  UNL1        0.0844
     11 N         139.6455  139.0754  166.4219 N.ar    1  UNL1       -0.2119
     12 C         139.8963  139.2248  164.9507 C.ar    1  UNL1        0.2211
     13 O         139.6768  138.0607  164.0304 O.3     1  UNL1       -0.4563
     14 C         140.7780  137.0863  164.3266 C.3     1  UNL1        0.2542
     15 C         141.7250  139.9159  162.2741 C.ar    1  UNL1        0.0213
     16 C         143.0500  139.7757  162.9630 C.ar    1  UNL1       -0.0007
     17 C         144.1575  139.0039  162.3089 C.ar    1  UNL1        0.0030
     18 C         143.9400  138.3724  160.9658 C.ar    1  UNL1        0.0400
     19 C         142.6149  138.5126  160.2769 C.ar    1  UNL1        0.1721
     20 C         141.5075  139.2844  160.9310 C.ar    1  UNL1        0.1687
     21 O         140.1825  139.4246  160.2421 O.3     1  UNL1       -0.4687
     22 C         139.9649  138.7930  158.8990 C.3     1  UNL1        0.2526
     23 C         141.0724  138.0213  158.2449 C.3     1  UNL1        0.2526
     24 O         142.3974  137.8811  158.9338 O.3     1  UNL1       -0.4684
     25 C         139.7609  141.6087  162.1111 C.3     1  UNL1        0.1162
     26 O         138.5760  140.7214  162.3530 O.3     1  UNL1       -0.3820
     27 H         137.7983  141.0917  161.9070 H       1  UNL1        0.2107
     28 C         142.5937  143.6511  160.2258 C.ar    1  UNL1        0.2271
     29 C         141.4087  142.7637  160.4678 C.ar    1  UNL1        0.0559
     30 C         140.9459  142.4961  161.8692 C.ar    1  UNL1        0.0117
     31 C         141.6679  143.1158  163.0287 C.ar    1  UNL1        0.0559
     32 C         142.8529  144.0032  162.7868 C.ar    1  UNL1        0.2271
     33 N         143.3157  144.2708  161.3854 N.ar    1  UNL1       -0.1767
     34 O         143.0565  143.9187  158.8243 O.3     1  UNL1       -0.4602
     35 C         144.2849  141.6304  158.7583 C.3     1  UNL1        0.0512
     36 C         143.7647  142.8463  158.0507 C.3     1  UNL1        0.2072
     37 O         143.5750  144.6229  163.9464 O.3     1  UNL1       -0.4602
     38 C         144.2825  143.7517  164.9416 C.3     1  UNL1        0.2072
     39 C         144.9776  142.5033  164.4850 C.3     1  UNL1        0.0512
     40 C         138.9043  142.5299  161.2940 C.3     1  UNL1        0.0491
     41 C         137.9480  143.4646  161.9734 C.3     1  UNL1        0.0750
     42 N         138.4673  144.5375  162.8840 N.3     1  UNL1       -0.2702
     43 C         139.1979  145.7167  162.3134 C.3     1  UNL1        0.0897
     44 C         138.2559  144.4312  164.3652 C.3     1  UNL1        0.0897
@<TRIPOS>BOND
     1    35    36    1
     2    36    34    1
     3    34    28    1
     4    28    29   ar
     5    29    30   ar
     6    30    25    1
     7    25    26    1
     8    25    40    1
     9    40    41    1
    10    41    42    1
    11    42    43    1
    12    42    44    1
    13    25     1    1
    14     1     2    1
    15     2     3   ar
    16     3     4   ar
    17     4     5   ar
    18     5     6   ar
    19     6     7    1
    20     6     8   ar
    21     8     9   ar
    22     9    10   ar
    23    10    11   ar
    24    11    12   ar
    25    12    13    1
    26    13    14    1
    27     1    15    1
    28    15    16   ar
    29    16    17   ar
    30    17    18   ar
    31    18    19   ar
    32    19    20   ar
    33    20    21    1
    34    21    22    1
    35    22    23    1
    36    23    24    1
    37    30    31   ar
    38    31    32   ar
    39    32    37    1
    40    37    38    1
    41    38    39    1
    42    32    33   ar
    43    33    28   ar
    44    12     2   ar
    45    20    15   ar
    46    10     4   ar
    47    24    19    1
    48    26    27    1
@<TRIPOS>MOLECULE
*****
 44 48 0 0 0
SMALL
GASTEIGER

@<TRIPOS>ATOM
      1 C         141.6215  141.3706  163.3381 C.3     1  UNL1        0.0807
      2 C         142.0483  141.6036  164.7571 C.ar    1  UNL1        0.0375
      3 C         141.2596  141.0074  165.8851 C.ar    1  UNL1        0.0023
      4 C         141.6864  141.2404  167.3041 C.ar    1  UNL1        0.0181
      5 C         140.8976  140.6442  168.4321 C.ar    1  UNL1        0.0082
      6 C         141.3245  140.8773  169.8510 C.ar    1  UNL1        0.0347
      7 BR        140.5357  140.2811  170.9791 Br      1  UNL1       -0.0490
      8 C         142.5401  141.7066  170.1420 C.ar    1  UNL1        0.0082
      9 C         143.3288  142.3028  169.0140 C.ar    1  UNL1        0.0197
     10 C         142.9020  142.0697  167.5951 C.ar    1  UNL1        0.0844
     11 N         143.6907  142.6659  166.4670 N.ar    1  UNL1       -0.2119
     12 C         143.2639  142.4329  165.0481 C.ar    1  UNL1        0.2211
     13 O         144.0526  143.0291  163.9200 O.3     1  UNL1       -0.4563
     14 C         145.3212  142.2330  163.8367 C.3     1  UNL1        0.2542
     15 C         142.4635  140.5229  162.4312 C.ar    1  UNL1        0.0213
     16 C         142.7941  139.1116  162.8169 C.ar    1  UNL1       -0.0007
     17 C         143.6362  138.2639  161.9100 C.ar    1  UNL1        0.0030
     18 C         144.1475  138.8275  160.6175 C.ar    1  UNL1        0.0400
     19 C         143.8169  140.2389  160.2318 C.ar    1  UNL1        0.1721
     20 C         142.9749  141.0866  161.1386 C.ar    1  UNL1        0.1687
     21 O         142.6442  142.4979  160.7529 O.3     1  UNL1       -0.4687
     22 C         143.1556  143.0616  159.4603 C.3     1  UNL1        0.2526
     23 C         143.9976  142.2139  158.5535 C.3     1  UNL1        0.2526
     24 O         144.3282  140.8026  158.9392 O.3     1  UNL1       -0.4684
     25 C         140.3526  141.9852  162.8260 C.3     1  UNL1        0.1162
     26 O         140.9111  143.3532  163.0842 O.3     1  UNL1       -0.3820
     27 H         140.2579  144.0229  162.8276 H       1  UNL1        0.2107
     28 C         138.8322  138.3746  163.4596 C.ar    1  UNL1        0.2271
     29 C         139.3907  139.7426  163.7177 C.ar    1  UNL1        0.0559
     30 C         139.7941  140.6172  162.5679 C.ar    1  UNL1        0.0117
     31 C         139.6391  140.1238  161.1599 C.ar    1  UNL1        0.0559
     32 C         139.0806  138.7558  160.9017 C.ar    1  UNL1        0.2271
     33 N         138.6771  137.8812  162.0516 N.ar    1  UNL1       -0.1767
     34 O         138.4287  137.5000  164.6095 O.3     1  UNL1       -0.4602
     35 C         137.7452  138.6112  166.8563 C.3     1  UNL1        0.0512
     36 C         138.7657  137.9048  166.0140 C.3     1  UNL1        0.2072
     37 O         138.9256  138.2625  159.4936 O.3     1  UNL1       -0.4602
     38 C         139.7594  138.8535  158.3958 C.3     1  UNL1        0.2072
     39 C         141.1876  138.4271  158.2263 C.3     1  UNL1        0.0512
     40 C         139.0838  142.5999  162.3139 C.3     1  UNL1        0.0491
     41 C         139.0931  143.9989  161.7731 C.3     1  UNL1        0.0750
     42 N         139.6349  144.2688  160.4006 N.3     1  UNL1       -0.2702
     43 C         139.4032  143.2817  159.2953 C.3     1  UNL1        0.0897
     44 C         140.4085  145.5259  160.1336 C.3     1  UNL1        0.0897
@<TRIPOS>BOND
     1    35    36    1
     2    36    34    1
     3    34    28    1
     4    28    29   ar
     5    29    30   ar
     6    30    25    1
     7    25    26    1
     8    25    40    1
     9    40    41    1
    10    41    42    1
    11    42    43    1
    12    42    44    1
    13    25     1    1
    14     1     2    1
    15     2     3   ar
    16     3     4   ar
    17     4     5   ar
    18     5     6   ar
    19     6     7    1
    20     6     8   ar
    21     8     9   ar
    22     9    10   ar
    23    10    11   ar
    24    11    12   ar
    25    12    13    1
    26    13    14    1
    27     1    15    1
    28    15    16   ar
    29    16    17   ar
    30    17    18   ar
    31    18    19   ar
    32    19    20   ar
    33    20    21    1
    34    21    22    1
    35    22    23    1
    36    23    24    1
    37    30    31   ar
    38    31    32   ar
    39    32    37    1
    40    37    38    1
    41    38    39    1
    42    32    33   ar
    43    33    28   ar
    44    12     2   ar
    45    20    15   ar
    46    10     4   ar
    47    24    19    1
    48    26    27    1
@<TRIPOS>MOLECULE
*****
 44 48 0 0 0
SMALL
GASTEIGER

@<TRIPOS>ATOM
      1 C         141.6762  141.7813  162.8005 C.3     1  UNL1        0.0807
      2 C         142.0604  141.9386  164.2419 C.ar    1  UNL1        0.0375
      3 C         141.0549  141.6634  165.3204 C.ar    1  UNL1        0.0023
      4 C         141.4390  141.8207  166.7619 C.ar    1  UNL1        0.0181
      5 C         140.4335  141.5455  167.8404 C.ar    1  UNL1        0.0082
      6 C         140.8177  141.7028  169.2817 C.ar    1  UNL1        0.0347
      7 BR        139.8121  141.4276  170.3603 Br      1  UNL1       -0.0490
      8 C         142.2074  142.1352  169.6446 C.ar    1  UNL1        0.0082
      9 C         143.2129  142.4104  168.5662 C.ar    1  UNL1        0.0197
     10 C         142.8287  142.2531  167.1248 C.ar    1  UNL1        0.0844
     11 N         143.8343  142.5283  166.0462 N.ar    1  UNL1       -0.2119
     12 C         143.4501  142.3710  164.6049 C.ar    1  UNL1        0.2211
     13 O         144.4557  142.6462  163.5263 O.3     1  UNL1       -0.4563
     14 C         145.6194  141.7421  163.8058 C.3     1  UNL1        0.2542
     15 C         142.4756  140.8817  161.9051 C.ar    1  UNL1        0.0213
     16 C         142.7521  139.4663  162.3178 C.ar    1  UNL1       -0.0007
     17 C         143.5515  138.5666  161.4224 C.ar    1  UNL1        0.0030
     18 C         144.0742  139.0823  160.1144 C.ar    1  UNL1        0.0400
     19 C         143.7976  140.4977  159.7018 C.ar    1  UNL1        0.1721
     20 C         142.9983  141.3973  160.5971 C.ar    1  UNL1        0.1687
     21 O         142.7217  142.8127  160.1845 O.3     1  UNL1       -0.4687
     22 C         143.2445  143.3283  158.8765 C.3     1  UNL1        0.2526
     23 C         144.0438  142.4287  157.9812 C.3     1  UNL1        0.2526
     24 O         144.3204  141.0134  158.3938 O.3     1  UNL1       -0.4684
     25 C         140.4928  142.5237  162.2544 C.3     1  UNL1        0.1162
     26 O         141.1482  143.8266  162.6051 O.3     1  UNL1       -0.3820
     27 H         140.5680  144.5600  162.3478 H       1  UNL1        0.2107
     28 C         138.8807  139.5917  160.1203 C.ar    1  UNL1        0.2271
     29 C         139.5362  140.8946  160.4710 C.ar    1  UNL1        0.0559
     30 C         139.8373  141.2209  161.9037 C.ar    1  UNL1        0.0117
     31 C         139.4829  140.2444  162.9857 C.ar    1  UNL1        0.0559
     32 C         138.8274  138.9416  162.6350 C.ar    1  UNL1        0.2271
     33 N         138.5263  138.6153  161.2023 N.ar    1  UNL1       -0.1767
     34 O         138.5796  139.2654  158.6874 O.3     1  UNL1       -0.4602
     35 C         140.9762  138.4131  158.1585 C.3     1  UNL1        0.0512
     36 C         139.7015  139.0655  157.7120 C.3     1  UNL1        0.2072
     37 O         138.4730  137.9651  163.7172 O.3     1  UNL1       -0.4602
     38 C         139.0281  138.1431  165.0992 C.3     1  UNL1        0.2072
     39 C         138.1852  138.7677  166.1714 C.3     1  UNL1        0.0512
     40 C         139.3093  143.2662  161.7084 C.3     1  UNL1        0.0491
     41 C         138.5826  144.2563  162.5694 C.3     1  UNL1        0.0750
     42 N         138.3654  143.9672  164.0252 N.3     1  UNL1       -0.2702
     43 C         137.5534  142.7764  164.4403 C.3     1  UNL1        0.0897
     44 C         138.9603  144.8690  165.0658 C.3     1  UNL1        0.0897
@<TRIPOS>BOND
     1    35    36    1
     2    36    34    1
     3    34    28    1
     4    28    29   ar
     5    29    30   ar
     6    30    25    1
     7    25    26    1
     8    25    40    1
     9    40    41    1
    10    41    42    1
    11    42    43    1
    12    42    44    1
    13    25     1    1
    14     1     2    1
    15     2     3   ar
    16     3     4   ar
    17     4     5   ar
    18     5     6   ar
    19     6     7    1
    20     6     8   ar
    21     8     9   ar
    22     9    10   ar
    23    10    11   ar
    24    11    12   ar
    25    12    13    1
    26    13    14    1
    27     1    15    1
    28    15    16   ar
    29    16    17   ar
    30    17    18   ar
    31    18    19   ar
    32    19    20   ar
    33    20    21    1
    34    21    22    1
    35    22    23    1
    36    23    24    1
    37    30    31   ar
    38    31    32   ar
    39    32    37    1
    40    37    38    1
    41    38    39    1
    42    32    33   ar
    43    33    28   ar
    44    12     2   ar
    45    20    15   ar
    46    10     4   ar
    47    24    19    1
    48    26    27    1
@<TRIPOS>MOLECULE
*****
 44 48 0 0 0
SMALL
GASTEIGER

@<TRIPOS>ATOM
      1 C         141.3847  142.3804  162.3853 C.3     1  UNL1        0.0807
      2 C         141.8761  142.3366  163.8019 C.ar    1  UNL1        0.0375
      3 C         141.0474  141.6751  164.8630 C.ar    1  UNL1        0.0023
      4 C         141.5388  141.6313  166.2796 C.ar    1  UNL1        0.0181
      5 C         140.7102  140.9699  167.3407 C.ar    1  UNL1        0.0082
      6 C         141.2015  140.9260  168.7572 C.ar    1  UNL1        0.0347
      7 BR        140.3729  140.2646  169.8184 Br      1  UNL1       -0.0490
      8 C         142.5214  141.5435  169.1127 C.ar    1  UNL1        0.0082
      9 C         143.3501  142.2050  168.0516 C.ar    1  UNL1        0.0197
     10 C         142.8587  142.2488  166.6351 C.ar    1  UNL1        0.0844
     11 N         143.6873  142.9102  165.5740 N.ar    1  UNL1       -0.2119
     12 C         143.1960  142.9541  164.1574 C.ar    1  UNL1        0.2211
     13 O         144.0246  143.6155  163.0963 O.3     1  UNL1       -0.4563
     14 C         143.8036  145.0902  163.2586 C.3     1  UNL1        0.2542
     15 C         142.2683  141.9059  161.2700 C.ar    1  UNL1        0.0213
     16 C         142.5850  142.8197  160.1235 C.ar    1  UNL1       -0.0007
     17 C         143.4687  142.3451  159.0081 C.ar    1  UNL1        0.0030
     18 C         144.0356  140.9567  159.0393 C.ar    1  UNL1        0.0400
     19 C         143.7188  140.0429  160.1859 C.ar    1  UNL1        0.1721
     20 C         142.8352  140.5175  161.3012 C.ar    1  UNL1        0.1687
     21 O         142.5185  139.6036  162.4478 O.3     1  UNL1       -0.4687
     22 C         143.0855  138.2153  162.4790 C.3     1  UNL1        0.2526
     23 C         143.9691  137.7407  161.3637 C.3     1  UNL1        0.2526
     24 O         144.2857  138.6545  160.2171 O.3     1  UNL1       -0.4684
     25 C         140.0098  142.8989  162.0841 C.3     1  UNL1        0.1162
     26 O         140.4428  144.2786  162.4828 O.3     1  UNL1       -0.3820
     27 H         139.6978  144.8922  162.3850 H       1  UNL1        0.2107
     28 C         138.9420  139.8060  159.8384 C.ar    1  UNL1        0.2271
     29 C         139.3750  141.1857  160.2370 C.ar    1  UNL1        0.0559
     30 C         139.5768  141.5192  161.6855 C.ar    1  UNL1        0.0117
     31 C         139.3458  140.4730  162.7352 C.ar    1  UNL1        0.0559
     32 C         138.9128  139.0933  162.3366 C.ar    1  UNL1        0.2271
     33 N         138.7109  138.7598  160.8881 N.ar    1  UNL1       -0.1767
     34 O         138.7402  139.4724  158.3899 O.3     1  UNL1       -0.4602
     35 C         137.1307  141.0972  157.1572 C.3     1  UNL1        0.0512
     36 C         138.5150  140.5695  157.3920 C.3     1  UNL1        0.2072
     37 O         138.6817  138.0471  163.3864 O.3     1  UNL1       -0.4602
     38 C         139.2221  138.2427  164.7719 C.3     1  UNL1        0.2072
     39 C         138.2915  138.5784  165.8995 C.3     1  UNL1        0.0512
     40 C         138.6349  143.4174  161.7829 C.3     1  UNL1        0.0491
     41 C         137.8945  144.2209  162.8106 C.3     1  UNL1        0.0750
     42 N         138.0040  143.8639  164.2633 N.3     1  UNL1       -0.2702
     43 C         137.5599  142.5124  164.7390 C.3     1  UNL1        0.0897
     44 C         138.5575  144.8583  165.2404 C.3     1  UNL1        0.0897
@<TRIPOS>BOND
     1    35    36    1
     2    36    34    1
     3    34    28    1
     4    28    29   ar
     5    29    30   ar
     6    30    25    1
     7    25    26    1
     8    25    40    1
     9    40    41    1
    10    41    42    1
    11    42    43    1
    12    42    44    1
    13    25     1    1
    14     1     2    1
    15     2     3   ar
    16     3     4   ar
    17     4     5   ar
    18     5     6   ar
    19     6     7    1
    20     6     8   ar
    21     8     9   ar
    22     9    10   ar
    23    10    11   ar
    24    11    12   ar
    25    12    13    1
    26    13    14    1
    27     1    15    1
    28    15    16   ar
    29    16    17   ar
    30    17    18   ar
    31    18    19   ar
    32    19    20   ar
    33    20    21    1
    34    21    22    1
    35    22    23    1
    36    23    24    1
    37    30    31   ar
    38    31    32   ar
    39    32    37    1
    40    37    38    1
    41    38    39    1
    42    32    33   ar
    43    33    28   ar
    44    12     2   ar
    45    20    15   ar
    46    10     4   ar
    47    24    19    1
    48    26    27    1
@<TRIPOS>MOLECULE
*****
 44 48 0 0 0
SMALL
GASTEIGER

@<TRIPOS>ATOM
      1 C         140.6681  140.6228  162.8642 C.3     1  UNL1        0.0807
      2 C         140.3613  140.4991  164.3273 C.ar    1  UNL1        0.0375
      3 C         140.6294  141.6511  165.2499 C.ar    1  UNL1        0.0023
      4 C         140.3225  141.5274  166.7130 C.ar    1  UNL1        0.0181
      5 C         140.5907  142.6793  167.6355 C.ar    1  UNL1        0.0082
      6 C         140.2838  142.5556  169.0986 C.ar    1  UNL1        0.0347
      7 BR        140.5520  143.7075  170.0212 Br      1  UNL1       -0.0490
      8 C         139.7088  141.2800  169.6390 C.ar    1  UNL1        0.0082
      9 C         139.4406  140.1280  168.7165 C.ar    1  UNL1        0.0197
     10 C         139.7475  140.2518  167.2535 C.ar    1  UNL1        0.0844
     11 N         139.4794  139.0998  166.3308 N.ar    1  UNL1       -0.2119
     12 C         139.7862  139.2235  164.8678 C.ar    1  UNL1        0.2211
     13 O         139.5181  138.0716  163.9452 O.3     1  UNL1       -0.4563
     14 C         140.6292  137.0905  164.1752 C.3     1  UNL1        0.2542
     15 C         141.7881  139.8267  162.2629 C.ar    1  UNL1        0.0213
     16 C         143.0809  139.6702  163.0073 C.ar    1  UNL1       -0.0007
     17 C         144.2010  138.8740  162.4060 C.ar    1  UNL1        0.0030
     18 C         144.0283  138.2343  161.0603 C.ar    1  UNL1        0.0400
     19 C         142.7354  138.3908  160.3159 C.ar    1  UNL1        0.1721
     20 C         141.6154  139.1870  160.9172 C.ar    1  UNL1        0.1687
     21 O         140.3226  139.3434  160.1728 O.3     1  UNL1       -0.4687
     22 C         140.1498  138.7037  158.8271 C.3     1  UNL1        0.2526
     23 C         141.2698  137.9076  158.2258 C.3     1  UNL1        0.2526
     24 O         142.5626  137.7511  158.9702 O.3     1  UNL1       -0.4684
     25 C         139.8549  141.5427  162.0025 C.3     1  UNL1        0.1162
     26 O         138.6548  140.6642  162.1974 O.3     1  UNL1       -0.3820
     27 H         137.9003  141.0357  161.7140 H       1  UNL1        0.2107
     28 C         142.8525  144.0237  162.7827 C.ar    1  UNL1        0.2271
     29 C         141.6524  143.1453  162.9776 C.ar    1  UNL1        0.0559
     30 C         141.0551  142.4211  161.8076 C.ar    1  UNL1        0.0117
     31 C         141.6579  142.5754  160.4428 C.ar    1  UNL1        0.0559
     32 C         142.8581  143.4539  160.2480 C.ar    1  UNL1        0.2271
     33 N         143.4554  144.1780  161.4179 N.ar    1  UNL1       -0.1767
     34 O         143.4499  144.7479  163.9527 O.3     1  UNL1       -0.4602
     35 C         144.7598  142.6089  164.6299 C.3     1  UNL1        0.0512
     36 C         144.3107  144.0076  164.9330 C.3     1  UNL1        0.2072
     37 O         143.4609  143.6081  158.8831 O.3     1  UNL1       -0.4602
     38 C         143.0349  142.6998  157.7680 C.3     1  UNL1        0.2072
     39 C         143.6967  141.3650  157.5935 C.3     1  UNL1        0.0512
     40 C         139.0417  142.4626  161.1408 C.3     1  UNL1        0.0491
     41 C         137.9958  143.3412  161.7603 C.3     1  UNL1        0.0750
     42 N         138.3949  144.4105  162.7336 N.3     1  UNL1       -0.2702
     43 C         138.0684  144.2590  164.1898 C.3     1  UNL1        0.0897
     44 C         139.1207  145.6312  162.2509 C.3     1  UNL1        0.0897
@<TRIPOS>BOND
     1    35    36    1
     2    36    34    1
     3    34    28    1
     4    28    29   ar
     5    29    30   ar
     6    30    25    1
     7    25    26    1
     8    25    40    1
     9    40    41    1
    10    41    42    1
    11    42    43    1
    12    42    44    1
    13    25     1    1
    14     1     2    1
    15     2     3   ar
    16     3     4   ar
    17     4     5   ar
    18     5     6   ar
    19     6     7    1
    20     6     8   ar
    21     8     9   ar
    22     9    10   ar
    23    10    11   ar
    24    11    12   ar
    25    12    13    1
    26    13    14    1
    27     1    15    1
    28    15    16   ar
    29    16    17   ar
    30    17    18   ar
    31    18    19   ar
    32    19    20   ar
    33    20    21    1
    34    21    22    1
    35    22    23    1
    36    23    24    1
    37    30    31   ar
    38    31    32   ar
    39    32    37    1
    40    37    38    1
    41    38    39    1
    42    32    33   ar
    43    33    28   ar
    44    12     2   ar
    45    20    15   ar
    46    10     4   ar
    47    24    19    1
    48    26    27    1
