@<TRIPOS>MOLECULE
*****
 35 39 0 0 0
SMALL
GASTEIGER

@<TRIPOS>ATOM
      1 N         138.2431  142.8235  160.1666 N.pl3   1  UNL1       -0.2464
      2 C         139.0417  142.6079  161.4179 C.2     1  UNL1        0.3157
      3 N         139.1151  141.3354  162.2087 N.2     1  UNL1       -0.0614
      4 C         140.0259  141.5681  163.3776 C.3     1  UNL1        0.2309
      5 C         140.5154  142.9844  163.3093 C.ar    1  UNL1        0.0390
      6 C         141.4363  143.7718  164.1934 C.ar    1  UNL1        0.0008
      7 C         141.7490  145.2019  163.8663 C.ar    1  UNL1        0.0021
      8 C         141.1407  145.8446  162.6551 C.ar    1  UNL1        0.0299
      9 C         140.2197  145.0571  161.7710 C.ar    1  UNL1        0.1470
     10 F         139.6114  145.6998  160.5598 F       1  UNL1       -0.2039
     11 C         139.9071  143.6270  162.0981 C.ar    1  UNL1        0.1094
     12 H         137.7028  142.0893  159.7949 H       1  UNL1        0.2884
     13 H         138.2592  143.6993  159.7171 H       1  UNL1        0.2884
     14 C         140.8713  141.5018  164.6149 C.ar    1  UNL1        0.0297
     15 C         142.3088  141.0835  164.5196 C.ar    1  UNL1        0.0004
     16 C         143.1542  141.0172  165.7569 C.ar    1  UNL1       -0.0002
     17 C         142.5622  141.3691  167.0895 C.ar    1  UNL1        0.0001
     18 C         141.1249  141.7873  167.1848 C.ar    1  UNL1        0.0028
     19 C         140.2794  141.8537  165.9475 C.ar    1  UNL1        0.0005
     20 C         140.5328  142.1392  168.5174 C.ar    1  UNL1        0.0384
     21 C         140.5824  143.5554  169.0096 C.ar    1  UNL1        0.1022
     22 N         139.9905  143.9073  170.3420 N.ar    1  UNL1       -0.2224
     23 C         139.3488  142.8432  171.1824 C.ar    1  UNL1        0.1989
     24 N         139.2993  141.4272  170.6901 N.ar    1  UNL1       -0.2224
     25 C         139.8913  141.0752  169.3576 C.ar    1  UNL1        0.1022
     26 C         139.7132  140.1379  163.7047 C.ar    1  UNL1        0.0327
     27 C         140.1991  139.0396  162.8061 C.ar    1  UNL1        0.0211
     28 C         139.8863  137.6095  163.1331 C.ar    1  UNL1        0.0986
     29 N         139.0878  137.2778  164.3588 N.ar    1  UNL1       -0.2399
     30 C         138.6019  138.3761  165.2574 C.ar    1  UNL1        0.1525
     31 C         138.9147  139.8062  164.9303 C.ar    1  UNL1        0.0235
     32 C         137.8034  138.0444  166.4831 C.3     1  UNL1        0.4348
     33 F         137.0048  137.7127  167.7087 F       1  UNL1       -0.1644
     34 F         137.8569  136.5890  166.1240 F       1  UNL1       -0.1644
     35 F         137.7498  139.4998  166.8421 F       1  UNL1       -0.1644
@<TRIPOS>BOND
     1     1     2    1
     2     2     3    2
     3     3     4    1
     4     4    14    1
     5    14    15   ar
     6    15    16   ar
     7    16    17   ar
     8    17    18   ar
     9    18    20    1
    10    20    21   ar
    11    21    22   ar
    12    22    23   ar
    13    23    24   ar
    14    24    25   ar
    15    18    19   ar
    16     4    26    1
    17    26    27   ar
    18    27    28   ar
    19    28    29   ar
    20    29    30   ar
    21    30    32    1
    22    32    33    1
    23    32    34    1
    24    32    35    1
    25    30    31   ar
    26     4     5    1
    27     5     6   ar
    28     6     7   ar
    29     7     8   ar
    30     8     9   ar
    31     9    10    1
    32     9    11   ar
    33    11     2    1
    34    19    14   ar
    35    31    26   ar
    36    11     5   ar
    37    25    20   ar
    38     1    12    1
    39     1    13    1
@<TRIPOS>MOLECULE
*****
 35 39 0 0 0
SMALL
GASTEIGER

@<TRIPOS>ATOM
      1 N         136.6391  137.6325  168.1200 N.pl3   1  UNL1       -0.2464
      2 C         137.7504  138.4615  167.5473 C.2     1  UNL1        0.3157
      3 N         138.3037  138.3547  166.1572 N.2     1  UNL1       -0.0614
      4 C         139.3987  139.3700  166.0150 C.3     1  UNL1        0.2309
      5 C         139.5220  140.1043  167.3172 C.ar    1  UNL1        0.0390
      6 C         140.4303  141.2116  167.7629 C.ar    1  UNL1        0.0008
      7 C         140.3199  141.7574  169.1557 C.ar    1  UNL1        0.0021
      8 C         139.3012  141.1959  170.1027 C.ar    1  UNL1        0.0299
      9 C         138.3929  140.0885  169.6570 C.ar    1  UNL1        0.1470
     10 F         137.3741  139.5270  170.6040 F       1  UNL1       -0.2039
     11 C         138.5033  139.5427  168.2642 C.ar    1  UNL1        0.1094
     12 H         136.2044  136.9431  167.5678 H       1  UNL1        0.2884
     13 H         136.3446  137.7778  169.0481 H       1  UNL1        0.2884
     14 C         140.5167  140.2712  165.5816 C.ar    1  UNL1        0.0297
     15 C         141.9137  140.0199  166.0669 C.ar    1  UNL1        0.0004
     16 C         143.0317  140.9211  165.6335 C.ar    1  UNL1       -0.0002
     17 C         142.7528  142.0736  164.7148 C.ar    1  UNL1        0.0001
     18 C         141.3559  142.3249  164.2295 C.ar    1  UNL1        0.0028
     19 C         140.2378  141.4237  164.6629 C.ar    1  UNL1        0.0005
     20 C         141.0769  143.4774  163.3108 C.ar    1  UNL1        0.0384
     21 C         139.8288  144.2909  163.4858 C.ar    1  UNL1        0.1022
     22 N         139.5498  145.4433  162.5672 N.ar    1  UNL1       -0.2224
     23 C         140.5188  145.7823  161.4735 C.ar    1  UNL1        0.1989
     24 N         141.7669  144.9688  161.2985 N.ar    1  UNL1       -0.2224
     25 C         142.0459  143.8163  162.2172 C.ar    1  UNL1        0.1022
     26 C         139.5091  138.8241  164.6222 C.ar    1  UNL1        0.0327
     27 C         140.5740  137.8207  164.2921 C.ar    1  UNL1        0.0211
     28 C         140.6843  137.2749  162.8993 C.ar    1  UNL1        0.0986
     29 N         139.7297  137.7325  161.8366 N.ar    1  UNL1       -0.2399
     30 C         138.6648  138.7359  162.1667 C.ar    1  UNL1        0.1525
     31 C         138.5545  139.2817  163.5595 C.ar    1  UNL1        0.0235
     32 C         137.7102  139.1935  161.1040 C.3     1  UNL1        0.4348
     33 F         136.7556  139.6511  160.0413 F       1  UNL1       -0.1644
     34 F         138.5899  140.3755  160.8228 F       1  UNL1       -0.1644
     35 F         136.8305  138.0115  161.3852 F       1  UNL1       -0.1644
@<TRIPOS>BOND
     1     1     2    1
     2     2     3    2
     3     3     4    1
     4     4    14    1
     5    14    15   ar
     6    15    16   ar
     7    16    17   ar
     8    17    18   ar
     9    18    20    1
    10    20    21   ar
    11    21    22   ar
    12    22    23   ar
    13    23    24   ar
    14    24    25   ar
    15    18    19   ar
    16     4    26    1
    17    26    27   ar
    18    27    28   ar
    19    28    29   ar
    20    29    30   ar
    21    30    32    1
    22    32    33    1
    23    32    34    1
    24    32    35    1
    25    30    31   ar
    26     4     5    1
    27     5     6   ar
    28     6     7   ar
    29     7     8   ar
    30     8     9   ar
    31     9    10    1
    32     9    11   ar
    33    11     2    1
    34    19    14   ar
    35    31    26   ar
    36    11     5   ar
    37    25    20   ar
    38     1    12    1
    39     1    13    1
@<TRIPOS>MOLECULE
*****
 35 39 0 0 0
SMALL
GASTEIGER

@<TRIPOS>ATOM
      1 N         140.3921  139.8628  160.1375 N.pl3   1  UNL1       -0.2464
      2 C         140.7783  139.7200  161.5799 C.2     1  UNL1        0.3157
      3 N         141.9458  140.3820  162.2497 N.2     1  UNL1       -0.0614
      4 C         141.9538  139.9613  163.6895 C.3     1  UNL1        0.2309
      5 C         140.7911  139.0394  163.9095 C.ar    1  UNL1        0.0390
      6 C         140.3002  138.3164  165.1286 C.ar    1  UNL1        0.0008
      7 C         139.0827  137.4444  165.0439 C.ar    1  UNL1        0.0021
      8 C         138.3562  137.2952  163.7401 C.ar    1  UNL1        0.0299
      9 C         138.8472  138.0182  162.5210 C.ar    1  UNL1        0.1470
     10 F         138.1206  137.8691  161.2172 F       1  UNL1       -0.2039
     11 C         140.0646  138.8903  162.6057 C.ar    1  UNL1        0.1094
     12 H         140.9262  140.4336  159.5391 H       1  UNL1        0.2884
     13 H         139.6045  139.3856  159.7893 H       1  UNL1        0.2884
     14 C         142.2163  139.7229  165.1470 C.ar    1  UNL1        0.0297
     15 C         143.1470  138.6259  165.5719 C.ar    1  UNL1        0.0004
     16 C         143.4095  138.3876  167.0294 C.ar    1  UNL1       -0.0002
     17 C         142.7413  139.2462  168.0620 C.ar    1  UNL1        0.0001
     18 C         141.8106  140.3432  167.6372 C.ar    1  UNL1        0.0028
     19 C         141.5481  140.5816  166.1796 C.ar    1  UNL1        0.0005
     20 C         141.1424  141.2019  168.6697 C.ar    1  UNL1        0.0384
     21 C         141.7559  142.5119  169.0667 C.ar    1  UNL1        0.1022
     22 N         141.0878  143.3706  170.0992 N.ar    1  UNL1       -0.2224
     23 C         139.8062  142.9193  170.7348 C.ar    1  UNL1        0.1989
     24 N         139.1928  141.6093  170.3378 N.ar    1  UNL1       -0.2224
     25 C         139.8609  140.7506  169.3053 C.ar    1  UNL1        0.1022
     26 C         143.1713  140.8334  163.7742 C.ar    1  UNL1        0.0327
     27 C         144.5320  140.2463  163.5422 C.ar    1  UNL1        0.0211
     28 C         145.7494  141.1185  163.6269 C.ar    1  UNL1        0.0986
     29 N         145.6062  142.5776  163.9435 N.ar    1  UNL1       -0.2399
     30 C         144.2455  143.1647  164.1755 C.ar    1  UNL1        0.1525
     31 C         143.0281  142.2926  164.0909 C.ar    1  UNL1        0.0235
     32 C         144.1023  144.6239  164.4922 C.3     1  UNL1        0.4348
     33 F         143.9590  146.0831  164.8089 F       1  UNL1       -0.1644
     34 F         143.3038  144.8178  163.2373 F       1  UNL1       -0.1644
     35 F         144.9007  144.4299  165.7471 F       1  UNL1       -0.1644
@<TRIPOS>BOND
     1     1     2    1
     2     2     3    2
     3     3     4    1
     4     4    14    1
     5    14    15   ar
     6    15    16   ar
     7    16    17   ar
     8    17    18   ar
     9    18    20    1
    10    20    21   ar
    11    21    22   ar
    12    22    23   ar
    13    23    24   ar
    14    24    25   ar
    15    18    19   ar
    16     4    26    1
    17    26    27   ar
    18    27    28   ar
    19    28    29   ar
    20    29    30   ar
    21    30    32    1
    22    32    33    1
    23    32    34    1
    24    32    35    1
    25    30    31   ar
    26     4     5    1
    27     5     6   ar
    28     6     7   ar
    29     7     8   ar
    30     8     9   ar
    31     9    10    1
    32     9    11   ar
    33    11     2    1
    34    19    14   ar
    35    31    26   ar
    36    11     5   ar
    37    25    20   ar
    38     1    12    1
    39     1    13    1
@<TRIPOS>MOLECULE
*****
 35 39 0 0 0
SMALL
GASTEIGER

@<TRIPOS>ATOM
      1 N         136.9649  137.6428  167.6899 N.pl3   1  UNL1       -0.2464
      2 C         138.0022  138.5371  167.0781 C.2     1  UNL1        0.3157
      3 N         138.4846  138.4855  165.6588 N.2     1  UNL1       -0.0614
      4 C         139.5198  139.5565  165.4818 C.3     1  UNL1        0.2309
      5 C         139.6772  140.2700  166.7918 C.ar    1  UNL1        0.0390
      6 C         140.5534  141.4120  167.2138 C.ar    1  UNL1        0.0008
      7 C         140.4916  141.9240  168.6223 C.ar    1  UNL1        0.0021
      8 C         139.5537  141.2940  169.6089 C.ar    1  UNL1        0.0299
      9 C         138.6776  140.1520  169.1870 C.ar    1  UNL1        0.1470
     10 F         137.7396  139.5219  170.1736 F       1  UNL1       -0.2039
     11 C         138.7393  139.6400  167.7784 C.ar    1  UNL1        0.1094
     12 H         136.5350  136.9438  167.1460 H       1  UNL1        0.2884
     13 H         136.7140  137.7549  168.6353 H       1  UNL1        0.2884
     14 C         140.5678  140.5205  165.0104 C.ar    1  UNL1        0.0297
     15 C         141.9899  140.3616  165.4605 C.ar    1  UNL1        0.0004
     16 C         143.0380  141.3255  164.9891 C.ar    1  UNL1       -0.0002
     17 C         142.6641  142.4485  164.0675 C.ar    1  UNL1        0.0001
     18 C         141.2421  142.6074  163.6174 C.ar    1  UNL1        0.0028
     19 C         140.1939  141.6434  164.0888 C.ar    1  UNL1        0.0005
     20 C         140.8681  143.7303  162.6959 C.ar    1  UNL1        0.0384
     21 C         141.7809  144.1104  161.5678 C.ar    1  UNL1        0.1022
     22 N         141.4070  145.2332  160.6463 N.ar    1  UNL1       -0.2224
     23 C         140.1202  145.9760  160.8527 C.ar    1  UNL1        0.1989
     24 N         139.2074  145.5959  161.9806 N.ar    1  UNL1       -0.2224
     25 C         139.5814  144.4730  162.9022 C.ar    1  UNL1        0.1022
     26 C         139.5815  139.0445  164.0732 C.ar    1  UNL1        0.0327
     27 C         138.3236  138.9154  163.2664 C.ar    1  UNL1        0.0211
     28 C         138.3853  138.4034  161.8579 C.ar    1  UNL1        0.0986
     29 N         139.7049  138.0205  161.2562 N.ar    1  UNL1       -0.2399
     30 C         140.9628  138.1496  162.0630 C.ar    1  UNL1        0.1525
     31 C         140.9011  138.6616  163.4715 C.ar    1  UNL1        0.0235
     32 C         142.2824  137.7667  161.4613 C.3     1  UNL1        0.4348
     33 F         143.6020  137.3839  160.8596 F       1  UNL1       -0.1644
     34 F         142.8927  137.7180  162.8307 F       1  UNL1       -0.1644
     35 F         141.6722  137.8155  160.0919 F       1  UNL1       -0.1644
@<TRIPOS>BOND
     1     1     2    1
     2     2     3    2
     3     3     4    1
     4     4    14    1
     5    14    15   ar
     6    15    16   ar
     7    16    17   ar
     8    17    18   ar
     9    18    20    1
    10    20    21   ar
    11    21    22   ar
    12    22    23   ar
    13    23    24   ar
    14    24    25   ar
    15    18    19   ar
    16     4    26    1
    17    26    27   ar
    18    27    28   ar
    19    28    29   ar
    20    29    30   ar
    21    30    32    1
    22    32    33    1
    23    32    34    1
    24    32    35    1
    25    30    31   ar
    26     4     5    1
    27     5     6   ar
    28     6     7   ar
    29     7     8   ar
    30     8     9   ar
    31     9    10    1
    32     9    11   ar
    33    11     2    1
    34    19    14   ar
    35    31    26   ar
    36    11     5   ar
    37    25    20   ar
    38     1    12    1
    39     1    13    1
@<TRIPOS>MOLECULE
*****
 35 39 0 0 0
SMALL
GASTEIGER

@<TRIPOS>ATOM
      1 N         141.8844  145.0169  161.1455 N.pl3   1  UNL1       -0.2464
      2 C         141.3207  143.9083  161.9841 C.2     1  UNL1        0.3157
      3 N         141.9905  142.5994  162.2810 N.2     1  UNL1       -0.0614
      4 C         141.0720  141.7962  163.1535 C.3     1  UNL1        0.2309
      5 C         139.8346  142.6087  163.3959 C.ar    1  UNL1        0.0390
      6 C         138.5878  142.3285  164.1813 C.ar    1  UNL1        0.0008
      7 C         137.4947  143.3537  164.2439 C.ar    1  UNL1        0.0021
      8 C         137.6484  144.6591  163.5212 C.ar    1  UNL1        0.0299
      9 C         138.8952  144.9393  162.7358 C.ar    1  UNL1        0.1470
     10 F         139.0489  146.2447  162.0131 F       1  UNL1       -0.2039
     11 C         139.9883  143.9141  162.6731 C.ar    1  UNL1        0.1094
     12 H         142.7727  144.9189  160.7325 H       1  UNL1        0.2884
     13 H         141.3660  145.8425  161.0080 H       1  UNL1        0.2884
     14 C         140.3821  140.7787  164.0129 C.ar    1  UNL1        0.0297
     15 C         139.5691  139.6889  163.3791 C.ar    1  UNL1        0.0004
     16 C         138.8792  138.6714  164.2385 C.ar    1  UNL1       -0.0002
     17 C         139.0023  138.7435  165.7317 C.ar    1  UNL1        0.0001
     18 C         139.8152  139.8331  166.3655 C.ar    1  UNL1        0.0028
     19 C         140.5052  140.8508  165.5061 C.ar    1  UNL1        0.0005
     20 C         139.9383  139.9053  167.8587 C.ar    1  UNL1        0.0384
     21 C         141.2935  139.9910  168.4962 C.ar    1  UNL1        0.1022
     22 N         141.4167  140.0631  169.9893 N.ar    1  UNL1       -0.2224
     23 C         140.1847  140.0497  170.8450 C.ar    1  UNL1        0.1989
     24 N         138.8297  139.9641  170.2076 N.ar    1  UNL1       -0.2224
     25 C         138.7065  139.8919  168.7144 C.ar    1  UNL1        0.1022
     26 C         142.1652  140.7710  163.0908 C.ar    1  UNL1        0.0327
     27 C         142.7744  140.4039  161.7701 C.ar    1  UNL1        0.0211
     28 C         143.8675  139.3787  161.7075 C.ar    1  UNL1        0.0986
     29 N         144.3515  138.7206  162.9655 N.ar    1  UNL1       -0.2399
     30 C         143.7424  139.0877  164.2862 C.ar    1  UNL1        0.1525
     31 C         142.6493  140.1128  164.3488 C.ar    1  UNL1        0.0235
     32 C         144.2264  138.4295  165.5442 C.3     1  UNL1        0.4348
     33 F         144.7104  137.7714  166.8022 F       1  UNL1       -0.1644
     34 F         145.6372  138.8021  165.1963 F       1  UNL1       -0.1644
     35 F         142.8157  138.0569  165.8920 F       1  UNL1       -0.1644
@<TRIPOS>BOND
     1     1     2    1
     2     2     3    2
     3     3     4    1
     4     4    14    1
     5    14    15   ar
     6    15    16   ar
     7    16    17   ar
     8    17    18   ar
     9    18    20    1
    10    20    21   ar
    11    21    22   ar
    12    22    23   ar
    13    23    24   ar
    14    24    25   ar
    15    18    19   ar
    16     4    26    1
    17    26    27   ar
    18    27    28   ar
    19    28    29   ar
    20    29    30   ar
    21    30    32    1
    22    32    33    1
    23    32    34    1
    24    32    35    1
    25    30    31   ar
    26     4     5    1
    27     5     6   ar
    28     6     7   ar
    29     7     8   ar
    30     8     9   ar
    31     9    10    1
    32     9    11   ar
    33    11     2    1
    34    19    14   ar
    35    31    26   ar
    36    11     5   ar
    37    25    20   ar
    38     1    12    1
    39     1    13    1
@<TRIPOS>MOLECULE
*****
 35 39 0 0 0
SMALL
GASTEIGER

@<TRIPOS>ATOM
      1 N         141.2043  141.8041  169.3121 N.pl3   1  UNL1       -0.2464
      2 C         141.0702  141.0787  168.0060 C.2     1  UNL1        0.3157
      3 N         142.0342  141.1432  166.8586 N.2     1  UNL1       -0.0614
      4 C         141.5084  140.2657  165.7616 C.3     1  UNL1        0.2309
      5 C         140.2194  139.6589  166.2309 C.ar    1  UNL1        0.0390
      6 C         139.2573  138.7137  165.5744 C.ar    1  UNL1        0.0008
      7 C         138.0244  138.2710  166.3051 C.ar    1  UNL1        0.0021
      8 C         137.7536  138.7735  167.6923 C.ar    1  UNL1        0.0299
      9 C         138.7157  139.7186  168.3488 C.ar    1  UNL1        0.1470
     10 F         138.4449  140.2210  169.7359 F       1  UNL1       -0.2039
     11 C         139.9486  140.1613  167.6181 C.ar    1  UNL1        0.1094
     12 H         141.9809  142.3871  169.4739 H       1  UNL1        0.2884
     13 H         140.5156  141.6973  170.0074 H       1  UNL1        0.2884
     14 C         141.2403  139.4808  164.5118 C.ar    1  UNL1        0.0297
     15 C         141.6608  138.0435  164.4240 C.ar    1  UNL1        0.0004
     16 C         141.3928  137.2586  163.1742 C.ar    1  UNL1       -0.0002
     17 C         140.7042  137.9109  162.0121 C.ar    1  UNL1        0.0001
     18 C         140.2837  139.3481  162.0998 C.ar    1  UNL1        0.0028
     19 C         140.5518  140.1331  163.3497 C.ar    1  UNL1        0.0005
     20 C         139.5952  140.0004  160.9377 C.ar    1  UNL1        0.0384
     21 C         139.3379  141.4782  160.9518 C.ar    1  UNL1        0.1022
     22 N         138.6494  142.1306  159.7898 N.ar    1  UNL1       -0.2224
     23 C         138.2182  141.3053  158.6138 C.ar    1  UNL1        0.1989
     24 N         138.4755  139.8276  158.5998 N.ar    1  UNL1       -0.2224
     25 C         139.1640  139.1752  159.7618 C.ar    1  UNL1        0.1022
     26 C         142.7414  140.7085  165.0309 C.ar    1  UNL1        0.0327
     27 C         143.8678  139.7436  164.8073 C.ar    1  UNL1        0.0211
     28 C         145.1007  140.1864  164.0767 C.ar    1  UNL1        0.0986
     29 N         145.2072  141.5940  163.5697 N.ar    1  UNL1       -0.2399
     30 C         144.0807  142.5589  163.7933 C.ar    1  UNL1        0.1525
     31 C         142.8478  142.1162  164.5239 C.ar    1  UNL1        0.0235
     32 C         144.1872  143.9666  163.2862 C.3     1  UNL1        0.4348
     33 F         144.2937  145.3743  162.7792 F       1  UNL1       -0.1644
     34 F         143.5352  144.4678  164.5407 F       1  UNL1       -0.1644
     35 F         144.8392  143.4655  162.0317 F       1  UNL1       -0.1644
@<TRIPOS>BOND
     1     1     2    1
     2     2     3    2
     3     3     4    1
     4     4    14    1
     5    14    15   ar
     6    15    16   ar
     7    16    17   ar
     8    17    18   ar
     9    18    20    1
    10    20    21   ar
    11    21    22   ar
    12    22    23   ar
    13    23    24   ar
    14    24    25   ar
    15    18    19   ar
    16     4    26    1
    17    26    27   ar
    18    27    28   ar
    19    28    29   ar
    20    29    30   ar
    21    30    32    1
    22    32    33    1
    23    32    34    1
    24    32    35    1
    25    30    31   ar
    26     4     5    1
    27     5     6   ar
    28     6     7   ar
    29     7     8   ar
    30     8     9   ar
    31     9    10    1
    32     9    11   ar
    33    11     2    1
    34    19    14   ar
    35    31    26   ar
    36    11     5   ar
    37    25    20   ar
    38     1    12    1
    39     1    13    1
@<TRIPOS>MOLECULE
*****
 35 39 0 0 0
SMALL
GASTEIGER

@<TRIPOS>ATOM
      1 N         141.1088  143.6171  161.1682 N.pl3   1  UNL1       -0.2464
      2 C         141.4948  142.8171  162.3769 C.2     1  UNL1        0.3157
      3 N         140.8995  141.5045  162.7924 N.2     1  UNL1       -0.0614
      4 C         141.5807  141.0655  164.0546 C.3     1  UNL1        0.2309
      5 C         142.5969  142.1068  164.4192 C.ar    1  UNL1        0.0390
      6 C         143.5638  142.2090  165.5615 C.ar    1  UNL1        0.0008
      7 C         144.4775  143.3939  165.6668 C.ar    1  UNL1        0.0021
      8 C         144.4244  144.4765  164.6299 C.ar    1  UNL1        0.0299
      9 C         143.4576  144.3742  163.4877 C.ar    1  UNL1        0.1470
     10 F         143.4045  145.4568  162.4508 F       1  UNL1       -0.2039
     11 C         142.5438  143.1894  163.3823 C.ar    1  UNL1        0.1094
     12 H         140.4044  143.2878  160.5643 H       1  UNL1        0.2884
     13 H         141.5597  144.4715  160.9788 H       1  UNL1        0.2884
     14 C         142.0708  140.3788  165.2948 C.ar    1  UNL1        0.0297
     15 C         142.9800  139.1907  165.1848 C.ar    1  UNL1        0.0004
     16 C         143.4702  138.5040  166.4250 C.ar    1  UNL1       -0.0002
     17 C         143.0511  139.0052  167.7753 C.ar    1  UNL1        0.0001
     18 C         142.1419  140.1932  167.8853 C.ar    1  UNL1        0.0028
     19 C         141.6517  140.8800  166.6451 C.ar    1  UNL1        0.0005
     20 C         141.7228  140.6945  169.2356 C.ar    1  UNL1        0.0384
     21 C         140.7409  139.9105  170.0550 C.ar    1  UNL1        0.1022
     22 N         140.3218  140.4117  171.4051 N.ar    1  UNL1       -0.2224
     23 C         140.8845  141.6969  171.9359 C.ar    1  UNL1        0.1989
     24 N         141.8663  142.4808  171.1165 N.ar    1  UNL1       -0.2224
     25 C         142.2855  141.9796  169.7663 C.ar    1  UNL1        0.1022
     26 C         140.6668  139.8806  163.9493 C.ar    1  UNL1        0.0327
     27 C         140.6749  139.0351  162.7104 C.ar    1  UNL1        0.0211
     28 C         139.7611  137.8502  162.6050 C.ar    1  UNL1        0.0986
     29 N         138.8393  137.5110  163.7386 N.ar    1  UNL1       -0.2399
     30 C         138.8312  138.3565  164.9775 C.ar    1  UNL1        0.1525
     31 C         139.7450  139.5413  165.0829 C.ar    1  UNL1        0.0235
     32 C         137.9093  138.0172  166.1111 C.3     1  UNL1        0.4348
     33 F         136.9874  137.6780  167.2447 F       1  UNL1       -0.1644
     34 F         137.6619  139.4778  166.3471 F       1  UNL1       -0.1644
     35 F         138.1566  136.5567  165.8752 F       1  UNL1       -0.1644
@<TRIPOS>BOND
     1     1     2    1
     2     2     3    2
     3     3     4    1
     4     4    14    1
     5    14    15   ar
     6    15    16   ar
     7    16    17   ar
     8    17    18   ar
     9    18    20    1
    10    20    21   ar
    11    21    22   ar
    12    22    23   ar
    13    23    24   ar
    14    24    25   ar
    15    18    19   ar
    16     4    26    1
    17    26    27   ar
    18    27    28   ar
    19    28    29   ar
    20    29    30   ar
    21    30    32    1
    22    32    33    1
    23    32    34    1
    24    32    35    1
    25    30    31   ar
    26     4     5    1
    27     5     6   ar
    28     6     7   ar
    29     7     8   ar
    30     8     9   ar
    31     9    10    1
    32     9    11   ar
    33    11     2    1
    34    19    14   ar
    35    31    26   ar
    36    11     5   ar
    37    25    20   ar
    38     1    12    1
    39     1    13    1
@<TRIPOS>MOLECULE
*****
 35 39 0 0 0
SMALL
GASTEIGER

@<TRIPOS>ATOM
      1 N         142.1111  145.0613  161.2625 N.pl3   1  UNL1       -0.2464
      2 C         141.5120  143.9664  162.0945 C.2     1  UNL1        0.3157
      3 N         142.1508  142.6452  162.4054 N.2     1  UNL1       -0.0614
      4 C         141.2025  141.8628  163.2648 C.3     1  UNL1        0.2309
      5 C         139.9778  142.7003  163.4851 C.ar    1  UNL1        0.0390
      6 C         138.7131  142.4471  164.2509 C.ar    1  UNL1        0.0008
      7 C         137.6397  143.4940  164.2934 C.ar    1  UNL1        0.0021
      8 C         137.8310  144.7941  163.5701 C.ar    1  UNL1        0.0299
      9 C         139.0957  145.0473  162.8043 C.ar    1  UNL1        0.1470
     10 F         139.2870  146.3474  162.0811 F       1  UNL1       -0.2039
     11 C         140.1691  144.0004  162.7619 C.ar    1  UNL1        0.1094
     12 H         143.0038  144.9445  160.8642 H       1  UNL1        0.2884
     13 H         141.6115  145.8966  161.1147 H       1  UNL1        0.2884
     14 C         140.4787  140.8615  164.1153 C.ar    1  UNL1        0.0297
     15 C         139.6107  139.8200  163.4733 C.ar    1  UNL1        0.0004
     16 C         138.8869  138.8187  164.3238 C.ar    1  UNL1       -0.0002
     17 C         139.0310  138.8587  165.8164 C.ar    1  UNL1        0.0001
     18 C         139.8990  139.9001  166.4584 C.ar    1  UNL1        0.0028
     19 C         140.6229  140.9015  165.6078 C.ar    1  UNL1        0.0005
     20 C         140.0432  139.9402  167.9509 C.ar    1  UNL1        0.0384
     21 C         138.8222  139.9538  168.8222 C.ar    1  UNL1        0.1022
     22 N         138.9663  139.9939  170.3147 N.ar    1  UNL1       -0.2224
     23 C         140.3315  140.0204  170.9359 C.ar    1  UNL1        0.1989
     24 N         141.5524  140.0068  170.0646 N.ar    1  UNL1       -0.2224
     25 C         141.4082  139.9667  168.5721 C.ar    1  UNL1        0.1022
     26 C         142.2760  140.8159  163.2222 C.ar    1  UNL1        0.0327
     27 C         143.3807  140.8327  164.2368 C.ar    1  UNL1        0.0211
     28 C         144.4541  139.7859  164.1942 C.ar    1  UNL1        0.0986
     29 N         144.4227  138.7221  163.1371 N.ar    1  UNL1       -0.2399
     30 C         143.3180  138.7052  162.1226 C.ar    1  UNL1        0.1525
     31 C         142.2447  139.7521  162.1652 C.ar    1  UNL1        0.0235
     32 C         143.2867  137.6415  161.0655 C.3     1  UNL1        0.4348
     33 F         143.2554  136.5777  160.0084 F       1  UNL1       -0.1644
     34 F         144.7068  137.2805  161.3867 F       1  UNL1       -0.1644
     35 F         141.8667  138.0025  160.7443 F       1  UNL1       -0.1644
@<TRIPOS>BOND
     1     1     2    1
     2     2     3    2
     3     3     4    1
     4     4    14    1
     5    14    15   ar
     6    15    16   ar
     7    16    17   ar
     8    17    18   ar
     9    18    20    1
    10    20    21   ar
    11    21    22   ar
    12    22    23   ar
    13    23    24   ar
    14    24    25   ar
    15    18    19   ar
    16     4    26    1
    17    26    27   ar
    18    27    28   ar
    19    28    29   ar
    20    29    30   ar
    21    30    32    1
    22    32    33    1
    23    32    34    1
    24    32    35    1
    25    30    31   ar
    26     4     5    1
    27     5     6   ar
    28     6     7   ar
    29     7     8   ar
    30     8     9   ar
    31     9    10    1
    32     9    11   ar
    33    11     2    1
    34    19    14   ar
    35    31    26   ar
    36    11     5   ar
    37    25    20   ar
    38     1    12    1
    39     1    13    1
@<TRIPOS>MOLECULE
*****
 35 39 0 0 0
SMALL
GASTEIGER

@<TRIPOS>ATOM
      1 N         137.8614  139.7898  170.2403 N.pl3   1  UNL1       -0.2464
      2 C         139.0082  139.8698  169.2767 C.2     1  UNL1        0.3157
      3 N         138.9373  139.6210  167.7992 N.2     1  UNL1       -0.0614
      4 C         140.3125  139.8100  167.2308 C.3     1  UNL1        0.2309
      5 C         141.2333  140.1756  168.3571 C.ar    1  UNL1        0.0390
      6 C         142.7017  140.4797  168.3946 C.ar    1  UNL1        0.0008
      7 C         143.3639  140.8207  169.6965 C.ar    1  UNL1        0.0021
      8 C         142.5578  140.8576  170.9610 C.ar    1  UNL1        0.0299
      9 C         141.0895  140.5535  170.9235 C.ar    1  UNL1        0.1470
     10 F         140.2834  140.5905  172.1879 F       1  UNL1       -0.2039
     11 C         140.4272  140.2126  169.6215 C.ar    1  UNL1        0.1094
     12 H         136.9617  139.5558  169.9164 H       1  UNL1        0.2884
     13 H         138.0085  139.9714  171.1967 H       1  UNL1        0.2884
     14 C         141.5492  139.9278  166.3903 C.ar    1  UNL1        0.0297
     15 C         142.4711  138.7535  166.2437 C.ar    1  UNL1        0.0004
     16 C         143.7078  138.8713  165.4032 C.ar    1  UNL1       -0.0002
     17 C         144.0228  140.1632  164.7091 C.ar    1  UNL1        0.0001
     18 C         143.1010  141.3374  164.8556 C.ar    1  UNL1        0.0028
     19 C         141.8641  141.2197  165.6962 C.ar    1  UNL1        0.0005
     20 C         143.4158  142.6294  164.1616 C.ar    1  UNL1        0.0384
     21 C         143.6838  143.8669  164.9660 C.ar    1  UNL1        0.1022
     22 N         143.9986  145.1589  164.2721 N.ar    1  UNL1       -0.2224
     23 C         144.0455  145.2134  162.7737 C.ar    1  UNL1        0.1989
     24 N         143.7776  143.9760  161.9694 N.ar    1  UNL1       -0.2224
     25 C         143.4627  142.6840  162.6633 C.ar    1  UNL1        0.1022
     26 C         139.6501  139.4690  165.9288 C.ar    1  UNL1        0.0327
     27 C         139.5374  138.0370  165.4972 C.ar    1  UNL1        0.0211
     28 C         138.8751  137.6960  164.1952 C.ar    1  UNL1        0.0986
     29 N         138.3255  138.7872  163.3250 N.ar    1  UNL1       -0.2399
     30 C         138.4383  140.2193  163.7566 C.ar    1  UNL1        0.1525
     31 C         139.1006  140.5602  165.0586 C.ar    1  UNL1        0.0235
     32 C         137.8887  141.3104  162.8864 C.3     1  UNL1        0.4348
     33 F         137.3392  142.4016  162.0161 F       1  UNL1       -0.1644
     34 F         137.3724  140.2825  161.9236 F       1  UNL1       -0.1644
     35 F         138.4050  142.3383  163.8491 F       1  UNL1       -0.1644
@<TRIPOS>BOND
     1     1     2    1
     2     2     3    2
     3     3     4    1
     4     4    14    1
     5    14    15   ar
     6    15    16   ar
     7    16    17   ar
     8    17    18   ar
     9    18    20    1
    10    20    21   ar
    11    21    22   ar
    12    22    23   ar
    13    23    24   ar
    14    24    25   ar
    15    18    19   ar
    16     4    26    1
    17    26    27   ar
    18    27    28   ar
    19    28    29   ar
    20    29    30   ar
    21    30    32    1
    22    32    33    1
    23    32    34    1
    24    32    35    1
    25    30    31   ar
    26     4     5    1
    27     5     6   ar
    28     6     7   ar
    29     7     8   ar
    30     8     9   ar
    31     9    10    1
    32     9    11   ar
    33    11     2    1
    34    19    14   ar
    35    31    26   ar
    36    11     5   ar
    37    25    20   ar
    38     1    12    1
    39     1    13    1
