@<TRIPOS>MOLECULE
*****
 34 38 0 0 0
SMALL
GASTEIGER

@<TRIPOS>ATOM
      1 N         139.7138  144.7123  160.0039 N.am    1  UNL1       -0.2484
      2 C         140.3534  143.7763  160.9862 C.2     1  UNL1        0.3249
      3 O         141.7773  143.3453  160.7936 O.2     1  UNL1       -0.2488
      4 N         139.5693  143.2713  162.1610 N.ar    1  UNL1       -0.2609
      5 C         138.1446  143.6130  162.4826 C.ar    1  UNL1        0.0842
      6 C         137.7670  142.8889  163.7408 C.ar    1  UNL1        0.0207
      7 C         138.9583  142.0997  164.1967 C.ar    1  UNL1        0.0208
      8 C         139.1727  141.1963  165.3749 C.ar    1  UNL1        0.0390
      9 C         140.5011  140.5293  165.5766 C.ar    1  UNL1        0.1473
     10 C         141.6150  140.7658  164.6002 C.ar    1  UNL1        0.0390
     11 C         141.4005  141.6691  163.4221 C.ar    1  UNL1        0.0208
     12 C         140.0722  142.3361  163.2203 C.ar    1  UNL1        0.0683
     13 H         138.7793  144.9951  160.1303 H       1  UNL1        0.1581
     14 C         141.1338  145.8221  156.5663 C.ar    1  UNL1        0.1549
     15 C         140.0353  145.2354  157.4023 C.ar    1  UNL1        0.0734
     16 C         140.4979  145.2172  158.8292 C.ar    1  UNL1        0.1773
     17 N         141.8823  145.7929  158.8748 N.ar    1  UNL1       -0.0620
     18 O         142.2753  146.1667  157.4764 O.2     1  UNL1       -0.3565
     19 C         139.9786  147.0139  155.2453 C.3     1  UNL1        0.0076
     20 C         141.0972  146.0282  155.0810 C.3     1  UNL1        0.0539
     21 C         142.2158  145.0425  154.9167 C.3     1  UNL1        0.0076
     22 C         141.0606  146.2342  153.5957 C.3     1  UNL1        0.0076
     23 O         140.7155  139.6260  166.7547 O.3     1  UNL1       -0.4363
     24 C         140.3428  140.0885  168.1321 C.ar    1  UNL1        0.2282
     25 N         139.0211  139.6962  168.7229 N.ar    1  UNL1       -0.1893
     26 C         138.6483  140.1587  170.1003 C.ar    1  UNL1        0.2012
     27 N         139.5974  141.0134  170.8869 N.ar    1  UNL1       -0.2271
     28 C         140.9192  141.4058  170.2961 C.ar    1  UNL1        0.0772
     29 C         141.2919  140.9433  168.9187 C.ar    1  UNL1        0.0477
     30 C         142.6136  141.3356  168.3278 C.3     1  UNL1        0.0494
     31 C         143.5626  142.1903  169.1144 C.3     1  UNL1        0.0738
     32 N         143.1899  142.6528  170.4918 N.3     1  UNL1       -0.2922
     33 C         141.8682  142.2605  171.0826 C.3     1  UNL1        0.1150
     34 H         143.2147  143.6724  170.4769 H       1  UNL1        0.1236
@<TRIPOS>BOND
     1    19    20    1
     2    20    21    1
     3    20    22    1
     4    20    14    1
     5    14    15   ar
     6    15    16   ar
     7    16     1    1
     8     1     2   am
     9     2     3    2
    10     2     4   am
    11     4     5   ar
    12     5     6   ar
    13     6     7   ar
    14     7     8   ar
    15     8     9   ar
    16     9    23    1
    17    23    24    1
    18    24    25   ar
    19    25    26   ar
    20    26    27   ar
    21    27    28   ar
    22    28    29   ar
    23    29    30    1
    24    30    31    1
    25    31    32    1
    26    32    33    1
    27     9    10   ar
    28    10    11   ar
    29    11    12   ar
    30    16    17   ar
    31    17    18   ar
    32    18    14   ar
    33    12     4   ar
    34    12     7   ar
    35    29    24   ar
    36    33    28    1
    37     1    13    1
    38    32    34    1
@<TRIPOS>MOLECULE
*****
 34 38 0 0 0
SMALL
GASTEIGER

@<TRIPOS>ATOM
      1 N         138.4973  139.4972  164.1901 N.am    1  UNL1       -0.2484
      2 C         139.6482  138.9897  163.3729 C.2     1  UNL1        0.3249
      3 O         140.8534  138.4110  164.0530 O.2     1  UNL1       -0.2488
      4 N         139.5938  139.0610  161.8756 N.ar    1  UNL1       -0.2609
      5 C         138.4614  139.6102  161.0596 C.ar    1  UNL1        0.0842
      6 C         138.8301  139.4842  159.6110 C.ar    1  UNL1        0.0207
      7 C         140.1904  138.8571  159.5319 C.ar    1  UNL1        0.0208
      8 C         141.0602  138.4904  158.3661 C.ar    1  UNL1        0.0390
      9 C         142.4021  137.8622  158.6000 C.ar    1  UNL1        0.1473
     10 C         142.8741  137.6006  159.9996 C.ar    1  UNL1        0.0390
     11 C         142.0043  137.9673  161.1653 C.ar    1  UNL1        0.0208
     12 C         140.6624  138.5955  160.9314 C.ar    1  UNL1        0.0683
     13 H         137.7063  139.8770  163.7438 H       1  UNL1        0.1581
     14 C         139.2362  139.7647  167.9912 C.ar    1  UNL1        0.1549
     15 C         139.5562  140.1096  166.5669 C.ar    1  UNL1        0.0734
     16 C         138.5516  139.4260  165.6874 C.ar    1  UNL1        0.1773
     17 N         137.6107  138.6586  166.5683 N.ar    1  UNL1       -0.0620
     18 O         138.0338  138.8680  167.9920 O.2     1  UNL1       -0.3565
     19 C         138.6945  140.3666  169.9518 C.3     1  UNL1        0.0076
     20 C         139.9869  140.2341  169.2020 C.3     1  UNL1        0.0539
     21 C         141.2792  140.1016  168.4522 C.3     1  UNL1        0.0076
     22 C         140.7375  140.7036  170.4129 C.3     1  UNL1        0.0076
     23 O         143.2720  137.4955  157.4343 O.3     1  UNL1       -0.4363
     24 C         143.0457  136.2034  156.7068 C.ar    1  UNL1        0.2282
     25 N         143.2415  134.8977  157.4186 N.ar    1  UNL1       -0.1893
     26 C         143.0153  133.6055  156.6912 C.ar    1  UNL1        0.2012
     27 N         142.5932  133.6191  155.2519 N.ar    1  UNL1       -0.2271
     28 C         142.3974  134.9249  154.5399 C.ar    1  UNL1        0.0772
     29 C         142.6237  136.2170  155.2674 C.ar    1  UNL1        0.0477
     30 C         142.4279  137.5227  154.5556 C.3     1  UNL1        0.0494
     31 C         142.0059  137.5363  153.1163 C.3     1  UNL1        0.0738
     32 N         141.7796  136.2441  152.3888 N.3     1  UNL1       -0.2922
     33 C         141.9754  134.9384  153.1006 C.3     1  UNL1        0.1150
     34 H         142.4131  136.2415  151.5893 H       1  UNL1        0.1236
@<TRIPOS>BOND
     1    19    20    1
     2    20    21    1
     3    20    22    1
     4    20    14    1
     5    14    15   ar
     6    15    16   ar
     7    16     1    1
     8     1     2   am
     9     2     3    2
    10     2     4   am
    11     4     5   ar
    12     5     6   ar
    13     6     7   ar
    14     7     8   ar
    15     8     9   ar
    16     9    23    1
    17    23    24    1
    18    24    25   ar
    19    25    26   ar
    20    26    27   ar
    21    27    28   ar
    22    28    29   ar
    23    29    30    1
    24    30    31    1
    25    31    32    1
    26    32    33    1
    27     9    10   ar
    28    10    11   ar
    29    11    12   ar
    30    16    17   ar
    31    17    18   ar
    32    18    14   ar
    33    12     4   ar
    34    12     7   ar
    35    29    24   ar
    36    33    28    1
    37     1    13    1
    38    32    34    1
@<TRIPOS>MOLECULE
*****
 34 38 0 0 0
SMALL
GASTEIGER

@<TRIPOS>ATOM
      1 N         138.5367  139.5177  164.2219 N.am    1  UNL1       -0.2484
      2 C         139.6935  139.0164  163.4091 C.2     1  UNL1        0.3249
      3 O         140.8985  138.4426  164.0939 O.2     1  UNL1       -0.2488
      4 N         139.6452  139.0888  161.9117 N.ar    1  UNL1       -0.2609
      5 C         138.5138  139.6335  161.0913 C.ar    1  UNL1        0.0842
      6 C         138.8893  139.5105  159.6442 C.ar    1  UNL1        0.0207
      7 C         140.2528  138.8898  159.5704 C.ar    1  UNL1        0.0208
      8 C         141.1294  138.5282  158.4080 C.ar    1  UNL1        0.0390
      9 C         142.4732  137.9060  158.6471 C.ar    1  UNL1        0.1473
     10 C         142.9404  137.6454  160.0485 C.ar    1  UNL1        0.0390
     11 C         142.0638  138.0069  161.2107 C.ar    1  UNL1        0.0208
     12 C         140.7200  138.6291  160.9717 C.ar    1  UNL1        0.0683
     13 H         137.7459  139.8943  163.7724 H       1  UNL1        0.1581
     14 C         139.2162  139.8359  168.0301 C.ar    1  UNL1        0.1549
     15 C         139.5149  140.2150  166.6099 C.ar    1  UNL1        0.0734
     16 C         138.5849  139.4454  165.7193 C.ar    1  UNL1        0.1773
     17 N         137.7116  138.5907  166.5893 N.ar    1  UNL1       -0.0620
     18 O         138.1017  138.8321  168.0173 O.2     1  UNL1       -0.3565
     19 C         141.1891  140.4775  168.4729 C.3     1  UNL1        0.0076
     20 C         139.9102  140.3674  169.2490 C.3     1  UNL1        0.0539
     21 C         138.6313  140.2573  170.0252 C.3     1  UNL1        0.0076
     22 C         140.6042  140.8989  170.4680 C.3     1  UNL1        0.0076
     23 O         143.3497  137.5445  157.4848 O.3     1  UNL1       -0.4363
     24 C         142.7852  136.7668  156.3330 C.ar    1  UNL1        0.2282
     25 N         142.2204  137.4888  155.1457 N.ar    1  UNL1       -0.1893
     26 C         141.6559  136.7112  153.9939 C.ar    1  UNL1        0.2012
     27 N         141.6561  135.2116  154.0294 N.ar    1  UNL1       -0.2271
     28 C         142.2209  134.4896  155.2168 C.ar    1  UNL1        0.0772
     29 C         142.7855  135.2672  156.3686 C.ar    1  UNL1        0.0477
     30 C         143.3502  134.5453  157.5559 C.3     1  UNL1        0.0494
     31 C         143.3505  133.0457  157.5915 C.3     1  UNL1        0.0738
     32 N         142.7860  132.2681  156.4397 N.3     1  UNL1       -0.2922
     33 C         142.2212  132.9901  155.2523 C.3     1  UNL1        0.1150
     34 H         142.0360  131.6878  156.8155 H       1  UNL1        0.1236
@<TRIPOS>BOND
     1    19    20    1
     2    20    21    1
     3    20    22    1
     4    20    14    1
     5    14    15   ar
     6    15    16   ar
     7    16     1    1
     8     1     2   am
     9     2     3    2
    10     2     4   am
    11     4     5   ar
    12     5     6   ar
    13     6     7   ar
    14     7     8   ar
    15     8     9   ar
    16     9    23    1
    17    23    24    1
    18    24    25   ar
    19    25    26   ar
    20    26    27   ar
    21    27    28   ar
    22    28    29   ar
    23    29    30    1
    24    30    31    1
    25    31    32    1
    26    32    33    1
    27     9    10   ar
    28    10    11   ar
    29    11    12   ar
    30    16    17   ar
    31    17    18   ar
    32    18    14   ar
    33    12     4   ar
    34    12     7   ar
    35    29    24   ar
    36    33    28    1
    37     1    13    1
    38    32    34    1
@<TRIPOS>MOLECULE
*****
 34 38 0 0 0
SMALL
GASTEIGER

@<TRIPOS>ATOM
      1 N         141.8864  145.3978  159.6007 N.am    1  UNL1       -0.2484
      2 C         141.0826  144.6867  160.6486 C.2     1  UNL1        0.3249
      3 O         139.6494  144.3329  160.3827 O.2     1  UNL1       -0.2488
      4 N         141.7121  144.3296  161.9625 N.ar    1  UNL1       -0.2609
      5 C         143.1269  144.6170  162.3695 C.ar    1  UNL1        0.0842
      6 C         143.3264  144.0873  163.7586 C.ar    1  UNL1        0.0207
      7 C         142.0348  143.4725  164.2101 C.ar    1  UNL1        0.0208
      8 C         141.6384  142.7956  165.4887 C.ar    1  UNL1        0.0390
      9 C         140.2442  142.2684  165.6572 C.ar    1  UNL1        0.1473
     10 C         139.2465  142.4182  164.5471 C.ar    1  UNL1        0.0390
     11 C         139.6430  143.0950  163.2686 C.ar    1  UNL1        0.0208
     12 C         141.0371  143.6222  163.1001 C.ar    1  UNL1        0.0683
     13 H         142.8270  145.6301  159.7752 H       1  UNL1        0.1581
     14 C         140.9004  146.0618  155.9057 C.ar    1  UNL1        0.1549
     15 C         141.8772  145.5719  156.9332 C.ar    1  UNL1        0.0734
     16 C         141.2570  145.7550  158.2868 C.ar    1  UNL1        0.1773
     17 N         139.8970  146.3582  158.0956 N.ar    1  UNL1       -0.0620
     18 O         139.6766  146.5477  156.6242 O.2     1  UNL1       -0.3565
     19 C         140.1857  147.2391  154.2923 C.3     1  UNL1        0.0076
     20 C         141.1105  146.0651  154.4205 C.3     1  UNL1        0.0539
     21 C         142.0354  144.8912  154.5487 C.3     1  UNL1        0.0076
     22 C         141.3207  146.0685  152.9354 C.3     1  UNL1        0.0076
     23 O         139.8478  141.5916  166.9357 O.3     1  UNL1       -0.4363
     24 C         140.3987  142.0773  168.2436 C.ar    1  UNL1        0.2282
     25 N         140.0631  143.4546  168.7336 N.ar    1  UNL1       -0.1893
     26 C         140.6140  143.9403  170.0415 C.ar    1  UNL1        0.2012
     27 N         141.5005  143.0486  170.8594 N.ar    1  UNL1       -0.2271
     28 C         141.8362  141.6712  170.3693 C.ar    1  UNL1        0.0772
     29 C         141.2853  141.1855  169.0614 C.ar    1  UNL1        0.0477
     30 C         141.6209  139.8082  168.5714 C.3     1  UNL1        0.0494
     31 C         142.5074  138.9165  169.3892 C.3     1  UNL1        0.0738
     32 N         143.0583  139.4022  170.6971 N.3     1  UNL1       -0.2922
     33 C         142.7227  140.7795  171.1872 C.3     1  UNL1        0.1150
     34 H         144.0746  139.3551  170.6242 H       1  UNL1        0.1236
@<TRIPOS>BOND
     1    19    20    1
     2    20    21    1
     3    20    22    1
     4    20    14    1
     5    14    15   ar
     6    15    16   ar
     7    16     1    1
     8     1     2   am
     9     2     3    2
    10     2     4   am
    11     4     5   ar
    12     5     6   ar
    13     6     7   ar
    14     7     8   ar
    15     8     9   ar
    16     9    23    1
    17    23    24    1
    18    24    25   ar
    19    25    26   ar
    20    26    27   ar
    21    27    28   ar
    22    28    29   ar
    23    29    30    1
    24    30    31    1
    25    31    32    1
    26    32    33    1
    27     9    10   ar
    28    10    11   ar
    29    11    12   ar
    30    16    17   ar
    31    17    18   ar
    32    18    14   ar
    33    12     4   ar
    34    12     7   ar
    35    29    24   ar
    36    33    28    1
    37     1    13    1
    38    32    34    1
@<TRIPOS>MOLECULE
*****
 34 38 0 0 0
SMALL
GASTEIGER

@<TRIPOS>ATOM
      1 N         142.2746  138.9277  158.1166 N.am    1  UNL1       -0.2484
      2 C         142.6399  139.0583  159.5655 C.2     1  UNL1        0.3249
      3 O         143.6563  138.1348  160.1689 O.2     1  UNL1       -0.2488
      4 N         141.9888  140.1124  160.4110 N.ar    1  UNL1       -0.2609
      5 C         140.9607  141.1024  159.9494 C.ar    1  UNL1        0.0842
      6 C         140.5880  141.9634  161.1197 C.ar    1  UNL1        0.0207
      7 C         141.3857  141.5056  162.3046 C.ar    1  UNL1        0.0208
      8 C         141.4356  141.9827  163.7259 C.ar    1  UNL1        0.0390
      9 C         142.3513  141.3158  164.7092 C.ar    1  UNL1        0.1473
     10 C         143.2171  140.1718  164.2711 C.ar    1  UNL1        0.0390
     11 C         143.1671  139.6948  162.8499 C.ar    1  UNL1        0.0208
     12 C         142.2514  140.3617  161.8667 C.ar    1  UNL1        0.0683
     13 H         141.6075  139.5338  157.7205 H       1  UNL1        0.1581
     14 C         143.4516  135.7395  156.2416 C.ar    1  UNL1        0.1549
     15 C         142.5383  136.4255  157.2137 C.ar    1  UNL1        0.0734
     16 C         142.9256  137.8736  157.2710 C.ar    1  UNL1        0.1773
     17 N         144.0783  138.0824  156.3341 N.ar    1  UNL1       -0.0620
     18 O         144.4034  136.7636  155.6980 O.2     1  UNL1       -0.3565
     19 C         143.9174  133.9304  157.2466 C.3     1  UNL1        0.0076
     20 C         143.4190  134.2849  155.8770 C.3     1  UNL1        0.0539
     21 C         142.9206  134.6394  154.5073 C.3     1  UNL1        0.0076
     22 C         143.3863  132.8303  155.5124 C.3     1  UNL1        0.0076
     23 O         142.4013  141.7929  166.1304 O.3     1  UNL1       -0.4363
     24 C         141.4676  141.2110  167.1501 C.ar    1  UNL1        0.2282
     25 N         140.3519  140.3073  166.7161 N.ar    1  UNL1       -0.1893
     26 C         139.4183  139.7254  167.7358 C.ar    1  UNL1        0.2012
     27 N         139.6004  140.0473  169.1894 N.ar    1  UNL1       -0.2271
     28 C         140.7161  140.9511  169.6235 C.ar    1  UNL1        0.0772
     29 C         141.6497  141.5330  168.6038 C.ar    1  UNL1        0.0477
     30 C         142.7655  142.4367  169.0378 C.3     1  UNL1        0.0494
     31 C         142.9475  142.7586  170.4914 C.3     1  UNL1        0.0738
     32 N         142.0139  142.1768  171.5111 N.3     1  UNL1       -0.2922
     33 C         140.8982  141.2730  171.0771 C.3     1  UNL1        0.1150
     34 H         141.5836  142.9626  171.9986 H       1  UNL1        0.1236
@<TRIPOS>BOND
     1    19    20    1
     2    20    21    1
     3    20    22    1
     4    20    14    1
     5    14    15   ar
     6    15    16   ar
     7    16     1    1
     8     1     2   am
     9     2     3    2
    10     2     4   am
    11     4     5   ar
    12     5     6   ar
    13     6     7   ar
    14     7     8   ar
    15     8     9   ar
    16     9    23    1
    17    23    24    1
    18    24    25   ar
    19    25    26   ar
    20    26    27   ar
    21    27    28   ar
    22    28    29   ar
    23    29    30    1
    24    30    31    1
    25    31    32    1
    26    32    33    1
    27     9    10   ar
    28    10    11   ar
    29    11    12   ar
    30    16    17   ar
    31    17    18   ar
    32    18    14   ar
    33    12     4   ar
    34    12     7   ar
    35    29    24   ar
    36    33    28    1
    37     1    13    1
    38    32    34    1
@<TRIPOS>MOLECULE
*****
 34 38 0 0 0
SMALL
GASTEIGER

@<TRIPOS>ATOM
      1 N         141.2750  144.3396  158.2699 N.am    1  UNL1       -0.2484
      2 C         140.8358  144.3915  159.7032 C.2     1  UNL1        0.3249
      3 O         139.6068  145.1629  160.0834 O.2     1  UNL1       -0.2488
      4 N         141.6255  143.6722  160.7561 N.ar    1  UNL1       -0.2609
      5 C         142.8689  142.8648  160.5280 C.ar    1  UNL1        0.0842
      6 C         143.3224  142.3275  161.8530 C.ar    1  UNL1        0.0207
      7 C         142.3592  142.8028  162.9000 C.ar    1  UNL1        0.0208
      8 C         142.3016  142.5862  164.3833 C.ar    1  UNL1        0.0390
      9 C         141.1953  143.2007  165.1885 C.ar    1  UNL1        0.1473
     10 C         140.1466  144.0318  164.5106 C.ar    1  UNL1        0.0390
     11 C         140.2042  144.2484  163.0275 C.ar    1  UNL1        0.0208
     12 C         141.3105  143.6339  162.2222 C.ar    1  UNL1        0.0683
     13 H         142.0817  143.8334  158.0203 H       1  UNL1        0.1581
     14 C         139.7836  146.7125  155.5846 C.ar    1  UNL1        0.1549
     15 C         140.8520  146.3661  156.5788 C.ar    1  UNL1        0.0734
     16 C         140.4854  145.0590  157.2169 C.ar    1  UNL1        0.1773
     17 N         139.1903  144.5975  156.6169 N.ar    1  UNL1       -0.0620
     18 O         138.7566  145.6194  155.6081 O.2     1  UNL1       -0.3565
     19 C         140.5938  147.2379  153.6959 C.3     1  UNL1        0.0076
     20 C         139.7483  147.9369  154.7189 C.3     1  UNL1        0.0539
     21 C         138.9028  148.6358  155.7419 C.3     1  UNL1        0.0076
     22 C         139.7130  149.1613  153.8532 C.3     1  UNL1        0.0076
     23 O         141.1377  142.9842  166.6717 O.3     1  UNL1       -0.4363
     24 C         140.4054  141.7995  167.2288 C.ar    1  UNL1        0.2282
     25 N         139.5876  140.9288  166.3216 N.ar    1  UNL1       -0.1893
     26 C         138.8553  139.7441  166.8788 C.ar    1  UNL1        0.2012
     27 N         138.9408  139.4303  168.3430 N.ar    1  UNL1       -0.2271
     28 C         139.7586  140.3010  169.2503 C.ar    1  UNL1        0.0772
     29 C         140.4909  141.4857  168.6931 C.ar    1  UNL1        0.0477
     30 C         141.3087  142.3564  169.6003 C.3     1  UNL1        0.0494
     31 C         141.3942  142.0426  171.0646 C.3     1  UNL1        0.0738
     32 N         140.6619  140.8579  171.6217 N.3     1  UNL1       -0.2922
     33 C         139.8441  139.9872  170.7145 C.3     1  UNL1        0.1150
     34 H         140.0288  141.2134  172.3381 H       1  UNL1        0.1236
@<TRIPOS>BOND
     1    19    20    1
     2    20    21    1
     3    20    22    1
     4    20    14    1
     5    14    15   ar
     6    15    16   ar
     7    16     1    1
     8     1     2   am
     9     2     3    2
    10     2     4   am
    11     4     5   ar
    12     5     6   ar
    13     6     7   ar
    14     7     8   ar
    15     8     9   ar
    16     9    23    1
    17    23    24    1
    18    24    25   ar
    19    25    26   ar
    20    26    27   ar
    21    27    28   ar
    22    28    29   ar
    23    29    30    1
    24    30    31    1
    25    31    32    1
    26    32    33    1
    27     9    10   ar
    28    10    11   ar
    29    11    12   ar
    30    16    17   ar
    31    17    18   ar
    32    18    14   ar
    33    12     4   ar
    34    12     7   ar
    35    29    24   ar
    36    33    28    1
    37     1    13    1
    38    32    34    1
@<TRIPOS>MOLECULE
*****
 34 38 0 0 0
SMALL
GASTEIGER

@<TRIPOS>ATOM
      1 N         139.6718  144.5922  158.5142 N.am    1  UNL1       -0.2484
      2 C         140.5874  144.5786  159.7022 C.2     1  UNL1        0.3249
      3 O         141.9237  145.2561  159.6269 O.2     1  UNL1       -0.2488
      4 N         140.1669  143.8876  160.9653 N.ar    1  UNL1       -0.2609
      5 C         138.8679  143.1714  161.1880 C.ar    1  UNL1        0.0842
      6 C         138.8697  142.6326  162.5880 C.ar    1  UNL1        0.0207
      7 C         140.1698  143.0160  163.2304 C.ar    1  UNL1        0.0208
      8 C         140.7272  142.7589  164.5991 C.ar    1  UNL1        0.0390
      9 C         142.0864  143.2775  164.9649 C.ar    1  UNL1        0.1473
     10 C         142.8881  144.0531  163.9620 C.ar    1  UNL1        0.0390
     11 C         142.3307  144.3101  162.5934 C.ar    1  UNL1        0.0208
     12 C         140.9715  143.7916  162.2276 C.ar    1  UNL1        0.0683
     13 H         138.7948  144.1476  158.5635 H       1  UNL1        0.1581
     14 C         140.2035  146.8609  155.4100 C.ar    1  UNL1        0.1549
     15 C         139.4724  146.5218  156.6751 C.ar    1  UNL1        0.0734
     16 C         140.0923  145.2832  157.2510 C.ar    1  UNL1        0.1773
     17 N         141.2065  144.8569  156.3417 N.ar    1  UNL1       -0.0620
     18 O         141.2752  145.8319  155.2040 O.2     1  UNL1       -0.3565
     19 C         140.7871  147.4217  153.4492 C.3     1  UNL1        0.0076
     20 C         139.9137  148.0247  154.5092 C.3     1  UNL1        0.0539
     21 C         139.0404  148.6278  155.5691 C.3     1  UNL1        0.0076
     22 C         139.6240  149.1885  153.6083 C.3     1  UNL1        0.0076
     23 O         142.6438  143.0204  166.3335 O.3     1  UNL1       -0.4363
     24 C         142.7826  141.6135  166.8348 C.ar    1  UNL1        0.2282
     25 N         143.0974  140.5035  165.8763 N.ar    1  UNL1       -0.1893
     26 C         143.2363  139.0965  166.3775 C.ar    1  UNL1        0.2012
     27 N         143.0603  138.7996  167.8372 N.ar    1  UNL1       -0.2271
     28 C         142.7455  139.9096  168.7958 C.ar    1  UNL1        0.0772
     29 C         142.6066  141.3166  168.2946 C.ar    1  UNL1        0.0477
     30 C         142.2918  142.4266  169.2530 C.3     1  UNL1        0.0494
     31 C         142.1159  142.1296  170.7128 C.3     1  UNL1        0.0738
     32 N         142.2547  140.7227  171.2140 N.3     1  UNL1       -0.2922
     33 C         142.5695  139.6127  170.2555 C.3     1  UNL1        0.1150
     34 H         141.3714  140.4818  171.6636 H       1  UNL1        0.1236
@<TRIPOS>BOND
     1    19    20    1
     2    20    21    1
     3    20    22    1
     4    20    14    1
     5    14    15   ar
     6    15    16   ar
     7    16     1    1
     8     1     2   am
     9     2     3    2
    10     2     4   am
    11     4     5   ar
    12     5     6   ar
    13     6     7   ar
    14     7     8   ar
    15     8     9   ar
    16     9    23    1
    17    23    24    1
    18    24    25   ar
    19    25    26   ar
    20    26    27   ar
    21    27    28   ar
    22    28    29   ar
    23    29    30    1
    24    30    31    1
    25    31    32    1
    26    32    33    1
    27     9    10   ar
    28    10    11   ar
    29    11    12   ar
    30    16    17   ar
    31    17    18   ar
    32    18    14   ar
    33    12     4   ar
    34    12     7   ar
    35    29    24   ar
    36    33    28    1
    37     1    13    1
    38    32    34    1
@<TRIPOS>MOLECULE
*****
 34 38 0 0 0
SMALL
GASTEIGER

@<TRIPOS>ATOM
      1 N         141.4644  138.6084  158.2276 N.am    1  UNL1       -0.2484
      2 C         141.6587  138.3967  159.6998 C.2     1  UNL1        0.3249
      3 O         142.6141  137.3479  160.1870 O.2     1  UNL1       -0.2488
      4 N         140.8976  139.2336  160.6848 N.ar    1  UNL1       -0.2609
      5 C         139.9132  140.3144  160.3485 C.ar    1  UNL1        0.0842
      6 C         139.3945  140.8855  161.6349 C.ar    1  UNL1        0.0207
      7 C         140.0582  140.1577  162.7661 C.ar    1  UNL1        0.0208
      8 C         139.9367  140.2927  164.2551 C.ar    1  UNL1        0.0390
      9 C         140.7442  139.4068  165.1569 C.ar    1  UNL1        0.1473
     10 C         141.6732  138.3859  164.5697 C.ar    1  UNL1        0.0390
     11 C         141.7946  138.2509  163.0807 C.ar    1  UNL1        0.0208
     12 C         140.9872  139.1368  162.1789 C.ar    1  UNL1        0.0683
     13 H         140.8374  139.2968  157.9078 H       1  UNL1        0.1581
     14 C         142.7909  136.0537  155.6239 C.ar    1  UNL1        0.1549
     15 C         141.6926  136.5839  156.4971 C.ar    1  UNL1        0.0734
     16 C         142.2255  137.7715  157.2426 C.ar    1  UNL1        0.1773
     17 N         143.6532  137.9752  156.8300 N.ar    1  UNL1       -0.0620
     18 O         144.0026  136.9136  155.8297 O.2     1  UNL1       -0.3565
     19 C         142.2009  135.7646  153.6069 C.3     1  UNL1        0.0076
     20 C         142.6945  134.8712  154.7061 C.3     1  UNL1        0.0539
     21 C         143.1880  133.9778  155.8052 C.3     1  UNL1        0.0076
     22 C         142.5980  133.6888  153.7883 C.3     1  UNL1        0.0076
     23 O         140.6227  139.5418  166.6458 O.3     1  UNL1       -0.4363
     24 C         141.4594  140.5484  167.3784 C.ar    1  UNL1        0.2282
     25 N         142.4620  141.3766  166.6309 N.ar    1  UNL1       -0.1893
     26 C         143.2988  142.3832  167.3635 C.ar    1  UNL1        0.2012
     27 N         143.1329  142.5616  168.8436 N.ar    1  UNL1       -0.2271
     28 C         142.1302  141.7333  169.5911 C.ar    1  UNL1        0.0772
     29 C         141.2935  140.7267  168.8585 C.ar    1  UNL1        0.0477
     30 C         140.2909  139.8985  169.6060 C.3     1  UNL1        0.0494
     31 C         140.1250  140.0769  171.0861 C.3     1  UNL1        0.0738
     32 N         140.9617  141.0835  171.8187 N.3     1  UNL1       -0.2922
     33 C         141.9643  141.9117  171.0712 C.3     1  UNL1        0.1150
     34 H         141.4775  140.5722  172.5349 H       1  UNL1        0.1236
@<TRIPOS>BOND
     1    19    20    1
     2    20    21    1
     3    20    22    1
     4    20    14    1
     5    14    15   ar
     6    15    16   ar
     7    16     1    1
     8     1     2   am
     9     2     3    2
    10     2     4   am
    11     4     5   ar
    12     5     6   ar
    13     6     7   ar
    14     7     8   ar
    15     8     9   ar
    16     9    23    1
    17    23    24    1
    18    24    25   ar
    19    25    26   ar
    20    26    27   ar
    21    27    28   ar
    22    28    29   ar
    23    29    30    1
    24    30    31    1
    25    31    32    1
    26    32    33    1
    27     9    10   ar
    28    10    11   ar
    29    11    12   ar
    30    16    17   ar
    31    17    18   ar
    32    18    14   ar
    33    12     4   ar
    34    12     7   ar
    35    29    24   ar
    36    33    28    1
    37     1    13    1
    38    32    34    1
@<TRIPOS>MOLECULE
*****
 34 38 0 0 0
SMALL
GASTEIGER

@<TRIPOS>ATOM
      1 N         138.8550  138.8944  165.8193 N.am    1  UNL1       -0.2484
      2 C         138.7607  139.9121  164.7214 C.2     1  UNL1        0.3249
      3 O         138.7786  141.3752  165.0515 O.2     1  UNL1       -0.2488
      4 N         138.6486  139.4666  163.2935 N.ar    1  UNL1       -0.2609
      5 C         138.6184  138.0460  162.8129 C.ar    1  UNL1        0.0842
      6 C         138.4981  138.0650  161.3178 C.ar    1  UNL1        0.0207
      7 C         138.4540  139.4973  160.8745 C.ar    1  UNL1        0.0208
      8 C         138.3412  140.1246  159.5166 C.ar    1  UNL1        0.0390
      9 C         138.3214  141.6183  159.3798 C.ar    1  UNL1        0.1473
     10 C         138.4144  142.4845  160.6010 C.ar    1  UNL1        0.0390
     11 C         138.5272  141.8571  161.9587 C.ar    1  UNL1        0.0208
     12 C         138.5470  140.3635  162.0955 C.ar    1  UNL1        0.0683
     13 H         138.8433  137.9341  165.6027 H       1  UNL1        0.1581
     14 C         139.8087  140.3300  169.2971 C.ar    1  UNL1        0.1549
     15 C         140.1157  140.0949  167.8479 C.ar    1  UNL1        0.0734
     16 C         138.9671  139.3398  167.2473 C.ar    1  UNL1        0.1773
     17 N         137.9503  139.1083  168.3255 N.ar    1  UNL1       -0.0620
     18 O         138.4704  139.7203  169.5923 O.2     1  UNL1       -0.3565
     19 C         139.7433  142.2153  170.2672 C.3     1  UNL1        0.0076
     20 C         140.6860  141.0487  170.2788 C.3     1  UNL1        0.0539
     21 C         141.6288  139.8821  170.2904 C.3     1  UNL1        0.0076
     22 C         141.5633  141.7674  171.2606 C.3     1  UNL1        0.0076
     23 O         138.2085  142.2456  158.0221 O.3     1  UNL1       -0.4363
     24 C         138.4992  141.4342  156.7944 C.ar    1  UNL1        0.2282
     25 N         139.9142  141.2599  156.3283 N.ar    1  UNL1       -0.1893
     26 C         140.2049  140.4485  155.1006 C.ar    1  UNL1        0.2012
     27 N         139.0806  139.8113  154.3392 N.ar    1  UNL1       -0.2271
     28 C         137.6655  139.9856  154.8053 C.ar    1  UNL1        0.0772
     29 C         137.3748  140.7970  156.0329 C.ar    1  UNL1        0.0477
     30 C         135.9598  140.9713  156.4991 C.3     1  UNL1        0.0494
     31 C         134.8355  140.3341  155.7376 C.3     1  UNL1        0.0738
     32 N         135.1262  139.5227  154.5100 N.3     1  UNL1       -0.2922
     33 C         136.5412  139.3484  154.0438 C.3     1  UNL1        0.1150
     34 H         134.6146  139.9571  153.7419 H       1  UNL1        0.1236
@<TRIPOS>BOND
     1    19    20    1
     2    20    21    1
     3    20    22    1
     4    20    14    1
     5    14    15   ar
     6    15    16   ar
     7    16     1    1
     8     1     2   am
     9     2     3    2
    10     2     4   am
    11     4     5   ar
    12     5     6   ar
    13     6     7   ar
    14     7     8   ar
    15     8     9   ar
    16     9    23    1
    17    23    24    1
    18    24    25   ar
    19    25    26   ar
    20    26    27   ar
    21    27    28   ar
    22    28    29   ar
    23    29    30    1
    24    30    31    1
    25    31    32    1
    26    32    33    1
    27     9    10   ar
    28    10    11   ar
    29    11    12   ar
    30    16    17   ar
    31    17    18   ar
    32    18    14   ar
    33    12     4   ar
    34    12     7   ar
    35    29    24   ar
    36    33    28    1
    37     1    13    1
    38    32    34    1
