@<TRIPOS>MOLECULE
*****
 34 39 0 0 0
SMALL
GASTEIGER

@<TRIPOS>ATOM
      1 C         142.2953  138.2474  157.5911 C.3     1  UNL1        0.2126
      2 C         141.1960  138.1101  158.6023 C.3     1  UNL1        0.1448
      3 N         141.7698  138.4128  159.9548 N.am    1  UNL1       -0.2435
      4 C         143.2238  138.7371  159.7794 C.2     1  UNL1        0.4052
      5 O         144.1844  139.0999  160.8728 O.2     1  UNL1       -0.2262
      6 O         143.5486  138.6348  158.3185 O.3     1  UNL1       -0.4319
      7 C         142.3270  134.0745  155.9070 C.ar    1  UNL1        0.1388
      8 C         142.1961  133.8616  154.4280 C.ar    1  UNL1        0.0384
      9 C         142.0545  135.0397  153.5103 C.ar    1  UNL1        0.0222
     10 C         142.0439  136.4306  154.0717 C.ar    1  UNL1        0.0813
     11 N         141.9023  137.6087  153.1540 N.ar    1  UNL1       -0.2439
     12 C         141.8918  138.9996  153.7153 C.ar    1  UNL1        0.0986
     13 C         142.0227  139.2126  155.1944 C.ar    1  UNL1        0.0199
     14 C         142.1643  138.0345  156.1121 C.ar    1  UNL1        0.0222
     15 C         142.1749  136.6435  155.5507 C.ar    1  UNL1        0.0201
     16 C         142.3164  135.4654  156.4683 C.ar    1  UNL1        0.0382
     17 C         143.8167  132.2781  157.0489 C.3     1  UNL1        0.2525
     18 O         142.4686  132.8964  156.8247 O.3     1  UNL1       -0.4714
     19 C         141.0211  138.3944  161.2544 C.3     1  UNL1        0.0815
     20 C         139.7305  139.1471  161.3872 C.3     1  UNL1        0.0373
     21 C         138.9817  139.1288  162.6869 C.3     1  UNL1        0.0741
     22 N         139.5237  138.3576  163.8538 N.3     1  UNL1       -0.2676
     23 C         140.8143  137.6049  163.7210 C.3     1  UNL1        0.0741
     24 C         141.5630  137.6233  162.4213 C.3     1  UNL1        0.0373
     25 C         138.7750  138.3392  165.1535 C.3     1  UNL1        0.1186
     26 C         139.1263  139.3173  166.2352 C.2     1  UNL1        0.0748
     27 C         139.8727  140.6053  166.0510 C.2     1  UNL1        0.0173
     28 C         140.0004  141.2630  167.3930 C.2     1  UNL1        0.0151
     29 C         140.6383  142.5507  167.8230 C.2     1  UNL1        0.0009
     30 C         140.6087  142.9569  169.2666 C.2     1  UNL1       -0.0041
     31 C         139.9412  142.0754  170.2803 C.2     1  UNL1       -0.0198
     32 C         139.3034  140.7878  169.8503 C.3     1  UNL1        0.0717
     33 C         139.3330  140.3816  168.4067 C.2     1  UNL1        0.0630
     34 N         138.7927  139.1790  167.6910 N.2     1  UNL1       -0.2523
@<TRIPOS>BOND
     1    17    18    1
     2    18     7    1
     3     7     8   ar
     4     8     9   ar
     5     9    10   ar
     6    10    11   ar
     7    11    12   ar
     8    12    13   ar
     9    13    14   ar
    10     1    14    1
    11     1     2    1
    12     2     3    1
    13     3    19    1
    14    19    20    1
    15    20    21    1
    16    21    22    1
    17    22    25    1
    18    25    26    1
    19    26    27    2
    20    27    28    1
    21    28    29    2
    22    29    30    1
    23    30    31    2
    24    31    32    1
    25    32    33    1
    26    33    34    2
    27    22    23    1
    28    23    24    1
    29     3     4   am
    30     4     5    2
    31     4     6    1
    32    14    15   ar
    33    15    16   ar
    34    16     7   ar
    35    15    10   ar
    36     6     1    1
    37    24    19    1
    38    34    26    1
    39    33    28    1
@<TRIPOS>MOLECULE
*****
 34 39 0 0 0
SMALL
GASTEIGER

@<TRIPOS>ATOM
      1 C         140.6941  142.6652  163.5679 C.3     1  UNL1        0.2126
      2 C         141.0453  142.8168  162.1176 C.3     1  UNL1        0.1448
      3 N         140.0255  143.7169  161.4853 N.am    1  UNL1       -0.2435
      4 C         139.0440  144.1217  162.5450 C.2     1  UNL1        0.4052
      5 O         137.8576  145.0189  162.3515 O.2     1  UNL1       -0.2262
      6 O         139.4572  143.4717  163.8321 O.3     1  UNL1       -0.4319
      7 C         140.6087  138.1714  163.3469 C.ar    1  UNL1        0.1388
      8 C         141.3621  137.3565  164.3559 C.ar    1  UNL1        0.0384
      9 C         142.1439  138.0394  165.4386 C.ar    1  UNL1        0.0222
     10 C         142.1724  139.5373  165.5123 C.ar    1  UNL1        0.0813
     11 N         142.9542  140.2202  166.5951 N.ar    1  UNL1       -0.2439
     12 C         142.9827  141.7180  166.6688 C.ar    1  UNL1        0.0986
     13 C         142.2293  142.5331  165.6597 C.ar    1  UNL1        0.0199
     14 C         141.4475  141.8502  164.5770 C.ar    1  UNL1        0.0222
     15 C         141.4190  140.3522  164.5033 C.ar    1  UNL1        0.0201
     16 C         140.6372  139.6693  163.4206 C.ar    1  UNL1        0.0382
     17 C         138.4043  137.8855  162.0019 C.3     1  UNL1        0.2525
     18 O         139.8268  137.4885  162.2641 O.3     1  UNL1       -0.4714
     19 C         139.9929  144.1383  160.0461 C.3     1  UNL1        0.0815
     20 C         139.3302  143.2639  159.0233 C.3     1  UNL1        0.0373
     21 C         139.2975  143.6852  157.5841 C.3     1  UNL1        0.0741
     22 N         139.9277  144.9812  157.1676 N.3     1  UNL1       -0.2676
     23 C         140.5905  145.8557  158.1904 C.3     1  UNL1        0.0741
     24 C         140.6231  145.4343  159.6296 C.3     1  UNL1        0.0373
     25 C         139.8951  145.4026  155.7284 C.3     1  UNL1        0.1186
     26 C         139.6832  146.8447  155.3739 C.2     1  UNL1        0.0748
     27 C         140.2228  147.5430  154.1609 C.2     1  UNL1        0.0173
     28 C         139.7676  148.9714  154.2076 C.2     1  UNL1        0.0151
     29 C         139.9945  150.1280  153.2797 C.2     1  UNL1        0.0009
     30 C         139.4005  151.4691  153.5937 C.2     1  UNL1       -0.0041
     31 C         138.5795  151.6537  154.8355 C.2     1  UNL1       -0.0198
     32 C         138.3526  150.4972  155.7633 C.3     1  UNL1        0.0717
     33 C         138.9466  149.1561  155.4494 C.2     1  UNL1        0.0630
     34 N         138.8945  147.8416  156.1701 N.2     1  UNL1       -0.2523
@<TRIPOS>BOND
     1    17    18    1
     2    18     7    1
     3     7     8   ar
     4     8     9   ar
     5     9    10   ar
     6    10    11   ar
     7    11    12   ar
     8    12    13   ar
     9    13    14   ar
    10     1    14    1
    11     1     2    1
    12     2     3    1
    13     3    19    1
    14    19    20    1
    15    20    21    1
    16    21    22    1
    17    22    25    1
    18    25    26    1
    19    26    27    2
    20    27    28    1
    21    28    29    2
    22    29    30    1
    23    30    31    2
    24    31    32    1
    25    32    33    1
    26    33    34    2
    27    22    23    1
    28    23    24    1
    29     3     4   am
    30     4     5    2
    31     4     6    1
    32    14    15   ar
    33    15    16   ar
    34    16     7   ar
    35    15    10   ar
    36     6     1    1
    37    24    19    1
    38    34    26    1
    39    33    28    1
@<TRIPOS>MOLECULE
*****
 34 39 0 0 0
SMALL
GASTEIGER

@<TRIPOS>ATOM
      1 C         139.4518  140.0467  163.9525 C.3     1  UNL1        0.2126
      2 C         140.1591  139.0981  163.0308 C.3     1  UNL1        0.1448
      3 N         140.1617  139.7014  161.6575 N.am    1  UNL1       -0.2435
      4 C         139.4558  141.0230  161.7305 C.2     1  UNL1        0.4052
      5 O         139.2286  141.9656  160.5860 O.2     1  UNL1       -0.2262
      6 O         139.0171  141.2364  163.1489 O.3     1  UNL1       -0.4319
      7 C         142.3331  141.7713  166.9482 C.ar    1  UNL1        0.1388
      8 C         142.1011  141.5663  168.4159 C.ar    1  UNL1        0.0384
      9 C         140.9087  140.7864  168.8850 C.ar    1  UNL1        0.0222
     10 C         139.9483  140.2116  167.8865 C.ar    1  UNL1        0.0813
     11 N         138.7559  139.4318  168.3557 N.ar    1  UNL1       -0.2439
     12 C         137.7955  138.8569  167.3571 C.ar    1  UNL1        0.0986
     13 C         138.0274  139.0619  165.8894 C.ar    1  UNL1        0.0199
     14 C         139.2198  139.8417  165.4202 C.ar    1  UNL1        0.0222
     15 C         140.1803  140.4166  166.4188 C.ar    1  UNL1        0.0201
     16 C         141.3726  141.1964  165.9497 C.ar    1  UNL1        0.0382
     17 C         143.5891  143.0453  165.0643 C.3     1  UNL1        0.2525
     18 O         143.5254  142.5511  166.4791 O.3     1  UNL1       -0.4714
     19 C         140.7642  139.0904  160.4271 C.3     1  UNL1        0.0815
     20 C         142.2214  138.7356  160.4026 C.3     1  UNL1        0.0373
     21 C         142.8241  138.1247  159.1723 C.3     1  UNL1        0.0741
     22 N         141.9693  137.8685  157.9665 N.3     1  UNL1       -0.2676
     23 C         140.5121  138.2232  157.9911 C.3     1  UNL1        0.0741
     24 C         139.9095  138.8342  159.2214 C.3     1  UNL1        0.0373
     25 C         142.5718  137.2575  156.7362 C.3     1  UNL1        0.1186
     26 C         142.4898  135.7758  156.5175 C.2     1  UNL1        0.0748
     27 C         141.5753  135.0755  155.5566 C.2     1  UNL1        0.0173
     28 C         141.8283  133.6012  155.6667 C.2     1  UNL1        0.0151
     29 C         141.2219  132.4234  154.9630 C.2     1  UNL1        0.0009
     30 C         141.6864  131.0347  155.2882 C.2     1  UNL1       -0.0041
     31 C         142.7573  130.8237  156.3171 C.2     1  UNL1       -0.0198
     32 C         143.3637  132.0014  157.0208 C.3     1  UNL1        0.0717
     33 C         142.8992  133.3901  156.6957 C.2     1  UNL1        0.0630
     34 N         143.3080  134.7341  157.2215 N.2     1  UNL1       -0.2523
@<TRIPOS>BOND
     1    17    18    1
     2    18     7    1
     3     7     8   ar
     4     8     9   ar
     5     9    10   ar
     6    10    11   ar
     7    11    12   ar
     8    12    13   ar
     9    13    14   ar
    10     1    14    1
    11     1     2    1
    12     2     3    1
    13     3    19    1
    14    19    20    1
    15    20    21    1
    16    21    22    1
    17    22    25    1
    18    25    26    1
    19    26    27    2
    20    27    28    1
    21    28    29    2
    22    29    30    1
    23    30    31    2
    24    31    32    1
    25    32    33    1
    26    33    34    2
    27    22    23    1
    28    23    24    1
    29     3     4   am
    30     4     5    2
    31     4     6    1
    32    14    15   ar
    33    15    16   ar
    34    16     7   ar
    35    15    10   ar
    36     6     1    1
    37    24    19    1
    38    34    26    1
    39    33    28    1
@<TRIPOS>MOLECULE
*****
 34 39 0 0 0
SMALL
GASTEIGER

@<TRIPOS>ATOM
      1 C         140.1209  141.1371  161.8120 C.3     1  UNL1        0.2126
      2 C         140.4192  140.7651  160.3898 C.3     1  UNL1        0.1448
      3 N         140.6026  139.2777  160.3284 N.am    1  UNL1       -0.2435
      4 C         140.4177  138.7303  161.7127 C.2     1  UNL1        0.4052
      5 O         140.5137  137.2871  162.1103 O.2     1  UNL1       -0.2262
      6 O         140.1200  139.8795  162.6296 O.3     1  UNL1       -0.4319
      7 C         143.5479  143.6446  163.3013 C.ar    1  UNL1        0.1388
      8 C         143.2949  145.0308  163.8155 C.ar    1  UNL1        0.0384
      9 C         141.8997  145.5811  163.8334 C.ar    1  UNL1        0.0222
     10 C         140.7573  144.7453  163.3370 C.ar    1  UNL1        0.0813
     11 N         139.3621  145.2956  163.3548 N.ar    1  UNL1       -0.2439
     12 C         138.2198  144.4598  162.8584 C.ar    1  UNL1        0.0986
     13 C         138.4727  143.0736  162.3441 C.ar    1  UNL1        0.0199
     14 C         139.8680  142.5232  162.3262 C.ar    1  UNL1        0.0222
     15 C         141.0103  143.3591  162.8227 C.ar    1  UNL1        0.0201
     16 C         142.4056  142.8088  162.8048 C.ar    1  UNL1        0.0382
     17 C         145.2617  141.8845  162.4558 C.3     1  UNL1        0.2525
     18 O         144.9432  143.0943  163.2834 O.3     1  UNL1       -0.4714
     19 C         140.9160  138.4779  159.0986 C.3     1  UNL1        0.0815
     20 C         139.8357  138.1824  158.1007 C.3     1  UNL1        0.0373
     21 C         140.1490  137.3827  156.8709 C.3     1  UNL1        0.0741
     22 N         141.5426  136.8785  156.6391 N.3     1  UNL1       -0.2676
     23 C         142.6228  137.1740  157.6370 C.3     1  UNL1        0.0741
     24 C         142.3095  137.9737  158.8667 C.3     1  UNL1        0.0373
     25 C         141.8559  136.0788  155.4093 C.3     1  UNL1        0.1186
     26 C         142.3320  134.6621  155.5372 C.2     1  UNL1        0.0748
     27 C         143.7374  134.2272  155.8300 C.2     1  UNL1        0.0173
     28 C         143.7601  132.7279  155.8684 C.2     1  UNL1        0.0151
     29 C         144.8680  131.7468  156.1137 C.2     1  UNL1        0.0009
     30 C         144.5846  130.2741  156.0899 C.2     1  UNL1       -0.0041
     31 C         143.1932  129.7823  155.8209 C.2     1  UNL1       -0.0198
     32 C         142.0854  130.7633  155.5757 C.3     1  UNL1        0.0717
     33 C         142.3688  132.2360  155.5994 C.2     1  UNL1        0.0630
     34 N         141.4862  133.4315  155.3947 N.2     1  UNL1       -0.2523
@<TRIPOS>BOND
     1    17    18    1
     2    18     7    1
     3     7     8   ar
     4     8     9   ar
     5     9    10   ar
     6    10    11   ar
     7    11    12   ar
     8    12    13   ar
     9    13    14   ar
    10     1    14    1
    11     1     2    1
    12     2     3    1
    13     3    19    1
    14    19    20    1
    15    20    21    1
    16    21    22    1
    17    22    25    1
    18    25    26    1
    19    26    27    2
    20    27    28    1
    21    28    29    2
    22    29    30    1
    23    30    31    2
    24    31    32    1
    25    32    33    1
    26    33    34    2
    27    22    23    1
    28    23    24    1
    29     3     4   am
    30     4     5    2
    31     4     6    1
    32    14    15   ar
    33    15    16   ar
    34    16     7   ar
    35    15    10   ar
    36     6     1    1
    37    24    19    1
    38    34    26    1
    39    33    28    1
@<TRIPOS>MOLECULE
*****
 34 39 0 0 0
SMALL
GASTEIGER

@<TRIPOS>ATOM
      1 C         139.5952  141.2572  162.4837 C.3     1  UNL1        0.2126
      2 C         139.8442  141.4534  161.0176 C.3     1  UNL1        0.1448
      3 N         139.4915  142.8700  160.6731 N.am    1  UNL1       -0.2435
      4 C         139.0245  143.5494  161.9263 C.2     1  UNL1        0.4052
      5 O         138.5728  144.9752  162.0403 O.2     1  UNL1       -0.2262
      6 O         139.0886  142.5526  163.0453 O.3     1  UNL1       -0.4319
      7 C         143.4955  140.5657  164.6189 C.ar    1  UNL1        0.1388
      8 C         143.7147  139.2969  165.3884 C.ar    1  UNL1        0.0384
      9 C         142.6337  138.2586  165.4461 C.ar    1  UNL1        0.0222
     10 C         141.3336  138.4891  164.7344 C.ar    1  UNL1        0.0813
     11 N         140.2526  137.4508  164.7921 N.ar    1  UNL1       -0.2439
     12 C         138.9525  137.6812  164.0804 C.ar    1  UNL1        0.0986
     13 C         138.7333  138.9501  163.3109 C.ar    1  UNL1        0.0199
     14 C         139.8143  139.9884  163.2532 C.ar    1  UNL1        0.0222
     15 C         141.1144  139.7579  163.9650 C.ar    1  UNL1        0.0201
     16 C         142.1954  140.7962  163.9072 C.ar    1  UNL1        0.0382
     17 C         145.6447  141.5171  163.5117 C.3     1  UNL1        0.2525
     18 O         144.5765  141.6040  164.5612 O.3     1  UNL1       -0.4714
     19 C         139.5887  143.4972  159.3139 C.3     1  UNL1        0.0815
     20 C         140.4145  144.7336  159.1158 C.3     1  UNL1        0.0373
     21 C         140.5118  145.3609  157.7567 C.3     1  UNL1        0.0741
     22 N         139.7831  144.7516  156.5956 N.3     1  UNL1       -0.2676
     23 C         138.9573  143.5151  156.7938 C.3     1  UNL1        0.0741
     24 C         138.8601  142.8880  158.1529 C.3     1  UNL1        0.0373
     25 C         139.8803  145.3787  155.2365 C.3     1  UNL1        0.1186
     26 C         139.6614  146.8538  155.0739 C.2     1  UNL1        0.0748
     27 C         138.8797  147.7367  156.0009 C.2     1  UNL1        0.0173
     28 C         138.9211  149.1334  155.4555 C.2     1  UNL1        0.0151
     29 C         138.3280  150.4206  155.9466 C.2     1  UNL1        0.0009
     30 C         138.5421  151.6882  155.1736 C.2     1  UNL1       -0.0041
     31 C         139.3494  151.6685  153.9095 C.2     1  UNL1       -0.0198
     32 C         139.9424  150.3813  153.4184 C.3     1  UNL1        0.0717
     33 C         139.7283  149.1138  154.1913 C.2     1  UNL1        0.0630
     34 N         140.1859  147.7048  153.9555 N.2     1  UNL1       -0.2523
@<TRIPOS>BOND
     1    17    18    1
     2    18     7    1
     3     7     8   ar
     4     8     9   ar
     5     9    10   ar
     6    10    11   ar
     7    11    12   ar
     8    12    13   ar
     9    13    14   ar
    10     1    14    1
    11     1     2    1
    12     2     3    1
    13     3    19    1
    14    19    20    1
    15    20    21    1
    16    21    22    1
    17    22    25    1
    18    25    26    1
    19    26    27    2
    20    27    28    1
    21    28    29    2
    22    29    30    1
    23    30    31    2
    24    31    32    1
    25    32    33    1
    26    33    34    2
    27    22    23    1
    28    23    24    1
    29     3     4   am
    30     4     5    2
    31     4     6    1
    32    14    15   ar
    33    15    16   ar
    34    16     7   ar
    35    15    10   ar
    36     6     1    1
    37    24    19    1
    38    34    26    1
    39    33    28    1
@<TRIPOS>MOLECULE
*****
 34 39 0 0 0
SMALL
GASTEIGER

@<TRIPOS>ATOM
      1 C         141.0764  139.6286  165.0849 C.3     1  UNL1        0.2126
      2 C         140.9629  140.4881  163.8608 C.3     1  UNL1        0.1448
      3 N         142.2764  140.4411  163.1380 N.am    1  UNL1       -0.2435
      4 C         143.2017  139.5525  163.9153 C.2     1  UNL1        0.4052
      5 O         144.6197  139.2239  163.5530 O.2     1  UNL1       -0.2262
      6 O         142.4601  139.0504  165.1186 O.3     1  UNL1       -0.4319
      7 C         141.2067  141.7412  169.0560 C.ar    1  UNL1        0.1388
      8 C         140.1262  141.5019  170.0686 C.ar    1  UNL1        0.0384
      9 C         139.0024  140.5585  169.7575 C.ar    1  UNL1        0.0222
     10 C         138.9589  139.8543  168.4338 C.ar    1  UNL1        0.0813
     11 N         137.8350  138.9108  168.1227 N.ar    1  UNL1       -0.2439
     12 C         137.7916  138.2067  166.7990 C.ar    1  UNL1        0.0986
     13 C         138.8721  138.4459  165.7863 C.ar    1  UNL1        0.0199
     14 C         139.9960  139.3894  166.0974 C.ar    1  UNL1        0.0222
     15 C         140.0394  140.0936  167.4212 C.ar    1  UNL1        0.0201
     16 C         141.1632  141.0370  167.7323 C.ar    1  UNL1        0.0382
     17 C         143.6882  142.1468  169.7099 C.3     1  UNL1        0.2525
     18 O         142.3306  142.6847  169.3671 O.3     1  UNL1       -0.4714
     19 C         142.6066  141.1570  161.8618 C.3     1  UNL1        0.0815
     20 C         141.7935  140.9027  160.6272 C.3     1  UNL1        0.0373
     21 C         142.1236  141.6185  159.3510 C.3     1  UNL1        0.0741
     22 N         143.2670  142.5887  159.3095 N.3     1  UNL1       -0.2676
     23 C         144.0801  142.8429  160.5441 C.3     1  UNL1        0.0741
     24 C         143.7499  142.1270  161.8202 C.3     1  UNL1        0.0373
     25 C         143.5972  143.3045  158.0334 C.3     1  UNL1        0.1186
     26 C         142.5921  144.2264  157.4089 C.2     1  UNL1        0.0748
     27 C         142.4368  144.4982  155.9419 C.2     1  UNL1        0.0173
     28 C         141.3145  145.4781  155.7684 C.2     1  UNL1        0.0151
     29 C         140.7132  146.1096  154.5479 C.2     1  UNL1        0.0009
     30 C         139.5735  147.0748  154.6870 C.2     1  UNL1       -0.0041
     31 C         139.0350  147.4086  156.0467 C.2     1  UNL1       -0.0198
     32 C         139.6363  146.7772  157.2672 C.3     1  UNL1        0.0717
     33 C         140.7760  145.8119  157.1280 C.2     1  UNL1        0.0630
     34 N         141.5657  145.0383  158.1419 N.2     1  UNL1       -0.2523
@<TRIPOS>BOND
     1    17    18    1
     2    18     7    1
     3     7     8   ar
     4     8     9   ar
     5     9    10   ar
     6    10    11   ar
     7    11    12   ar
     8    12    13   ar
     9    13    14   ar
    10     1    14    1
    11     1     2    1
    12     2     3    1
    13     3    19    1
    14    19    20    1
    15    20    21    1
    16    21    22    1
    17    22    25    1
    18    25    26    1
    19    26    27    2
    20    27    28    1
    21    28    29    2
    22    29    30    1
    23    30    31    2
    24    31    32    1
    25    32    33    1
    26    33    34    2
    27    22    23    1
    28    23    24    1
    29     3     4   am
    30     4     5    2
    31     4     6    1
    32    14    15   ar
    33    15    16   ar
    34    16     7   ar
    35    15    10   ar
    36     6     1    1
    37    24    19    1
    38    34    26    1
    39    33    28    1
@<TRIPOS>MOLECULE
*****
 34 39 0 0 0
SMALL
GASTEIGER

@<TRIPOS>ATOM
      1 C         142.5991  141.3464  164.9827 C.3     1  UNL1        0.2126
      2 C         142.1871  141.5183  163.5507 C.3     1  UNL1        0.1448
      3 N         143.4306  141.5656  162.7131 N.am    1  UNL1       -0.2435
      4 C         144.6111  141.4230  163.6275 C.2     1  UNL1        0.4052
      5 O         146.0525  141.4169  163.2122 O.2     1  UNL1       -0.2262
      6 O         144.0972  141.2875  165.0302 O.3     1  UNL1       -0.4319
      7 C         139.1631  138.4414  164.9158 C.ar    1  UNL1        0.1388
      8 C         138.2392  138.3453  166.0935 C.ar    1  UNL1        0.0384
      9 C         138.4606  139.2176  167.2936 C.ar    1  UNL1        0.0222
     10 C         139.6059  140.1859  167.3159 C.ar    1  UNL1        0.0813
     11 N         139.8272  141.0582  168.5159 N.ar    1  UNL1       -0.2439
     12 C         140.9726  142.0265  168.5383 C.ar    1  UNL1        0.0986
     13 C         141.8966  142.1226  167.3605 C.ar    1  UNL1        0.0199
     14 C         141.6752  141.2504  166.1604 C.ar    1  UNL1        0.0222
     15 C         140.5298  140.2820  166.1382 C.ar    1  UNL1        0.0201
     16 C         140.3084  139.4097  164.9381 C.ar    1  UNL1        0.0382
     17 C         139.7734  137.7645  162.4828 C.3     1  UNL1        0.2525
     18 O         138.9417  137.5691  163.7157 O.3     1  UNL1       -0.4714
     19 C         143.4842  141.7271  161.2228 C.3     1  UNL1        0.0815
     20 C         143.2687  143.0775  160.6065 C.3     1  UNL1        0.0373
     21 C         143.3223  143.2392  159.1162 C.3     1  UNL1        0.0741
     22 N         143.5914  142.0502  158.2421 N.3     1  UNL1       -0.2676
     23 C         143.8069  140.6997  158.8584 C.3     1  UNL1        0.0741
     24 C         143.7533  140.5382  160.3487 C.3     1  UNL1        0.0373
     25 C         143.6450  142.2117  156.7518 C.3     1  UNL1        0.1186
     26 C         144.9699  142.3090  156.0552 C.2     1  UNL1        0.0748
     27 C         146.2726  141.7608  156.5575 C.2     1  UNL1        0.0173
     28 C         147.3324  142.0847  155.5467 C.2     1  UNL1        0.0151
     29 C         148.8036  141.7948  155.5069 C.2     1  UNL1        0.0009
     30 C         149.6271  142.2534  154.3401 C.2     1  UNL1       -0.0041
     31 C         148.9794  143.0018  153.2129 C.2     1  UNL1       -0.0198
     32 C         147.5083  143.2917  153.2527 C.3     1  UNL1        0.0717
     33 C         146.6848  142.8331  154.4196 C.2     1  UNL1        0.0630
     34 N         145.2246  142.9718  154.7339 N.2     1  UNL1       -0.2523
@<TRIPOS>BOND
     1    17    18    1
     2    18     7    1
     3     7     8   ar
     4     8     9   ar
     5     9    10   ar
     6    10    11   ar
     7    11    12   ar
     8    12    13   ar
     9    13    14   ar
    10     1    14    1
    11     1     2    1
    12     2     3    1
    13     3    19    1
    14    19    20    1
    15    20    21    1
    16    21    22    1
    17    22    25    1
    18    25    26    1
    19    26    27    2
    20    27    28    1
    21    28    29    2
    22    29    30    1
    23    30    31    2
    24    31    32    1
    25    32    33    1
    26    33    34    2
    27    22    23    1
    28    23    24    1
    29     3     4   am
    30     4     5    2
    31     4     6    1
    32    14    15   ar
    33    15    16   ar
    34    16     7   ar
    35    15    10   ar
    36     6     1    1
    37    24    19    1
    38    34    26    1
    39    33    28    1
@<TRIPOS>MOLECULE
*****
 34 39 0 0 0
SMALL
GASTEIGER

@<TRIPOS>ATOM
      1 C         141.9940  136.9779  156.3412 C.3     1  UNL1        0.2126
      2 C         140.8514  137.4625  157.1836 C.3     1  UNL1        0.1448
      3 N         141.4078  138.3658  158.2441 N.am    1  UNL1       -0.2435
      4 C         142.8943  138.4394  158.0571 C.2     1  UNL1        0.4052
      5 O         143.8506  139.2317  158.8983 O.2     1  UNL1       -0.2262
      6 O         143.2565  137.5817  156.8810 O.3     1  UNL1       -0.4319
      7 C         143.8868  132.8992  156.5180 C.ar    1  UNL1        0.1388
      8 C         143.7847  131.9734  155.3423 C.ar    1  UNL1        0.0384
      9 C         143.0516  132.4072  154.1076 C.ar    1  UNL1        0.0222
     10 C         142.4207  133.7667  154.0486 C.ar    1  UNL1        0.0813
     11 N         141.6877  134.2005  152.8139 N.ar    1  UNL1       -0.2439
     12 C         141.0567  135.5600  152.7550 C.ar    1  UNL1        0.0986
     13 C         141.1588  136.4859  153.9308 C.ar    1  UNL1        0.0199
     14 C         141.8918  136.0521  155.1655 C.ar    1  UNL1        0.0222
     15 C         142.5228  134.6925  155.2244 C.ar    1  UNL1        0.0201
     16 C         143.2558  134.2588  156.4591 C.ar    1  UNL1        0.0382
     17 C         144.8875  131.0093  157.9934 C.3     1  UNL1        0.2525
     18 O         144.6198  132.4655  157.7527 O.3     1  UNL1       -0.4714
     19 C         140.6167  139.0715  159.3052 C.3     1  UNL1        0.0815
     20 C         139.7871  138.2806  160.2729 C.3     1  UNL1        0.0373
     21 C         138.9959  138.9862  161.3341 C.3     1  UNL1        0.0741
     22 N         139.0344  140.4829  161.4276 N.3     1  UNL1       -0.2676
     23 C         139.8639  141.2738  160.4600 C.3     1  UNL1        0.0741
     24 C         140.6551  140.5680  159.3988 C.3     1  UNL1        0.0373
     25 C         138.2432  141.1886  162.4888 C.3     1  UNL1        0.1186
     26 C         138.6761  141.1114  163.9229 C.2     1  UNL1        0.0748
     27 C         138.3448  140.0100  164.8859 C.2     1  UNL1        0.0173
     28 C         138.9802  140.3400  166.2039 C.2     1  UNL1        0.0151
     29 C         138.9932  139.6205  167.5200 C.2     1  UNL1        0.0009
     30 C         139.7301  140.2063  168.6878 C.2     1  UNL1       -0.0041
     31 C         140.4541  141.5117  168.5395 C.2     1  UNL1       -0.0198
     32 C         140.4412  142.2311  167.2235 C.3     1  UNL1        0.0717
     33 C         139.7043  141.6453  166.0557 C.2     1  UNL1        0.0630
     34 N         139.5162  142.1220  164.6459 N.2     1  UNL1       -0.2523
@<TRIPOS>BOND
     1    17    18    1
     2    18     7    1
     3     7     8   ar
     4     8     9   ar
     5     9    10   ar
     6    10    11   ar
     7    11    12   ar
     8    12    13   ar
     9    13    14   ar
    10     1    14    1
    11     1     2    1
    12     2     3    1
    13     3    19    1
    14    19    20    1
    15    20    21    1
    16    21    22    1
    17    22    25    1
    18    25    26    1
    19    26    27    2
    20    27    28    1
    21    28    29    2
    22    29    30    1
    23    30    31    2
    24    31    32    1
    25    32    33    1
    26    33    34    2
    27    22    23    1
    28    23    24    1
    29     3     4   am
    30     4     5    2
    31     4     6    1
    32    14    15   ar
    33    15    16   ar
    34    16     7   ar
    35    15    10   ar
    36     6     1    1
    37    24    19    1
    38    34    26    1
    39    33    28    1
@<TRIPOS>MOLECULE
*****
 34 39 0 0 0
SMALL
GASTEIGER

@<TRIPOS>ATOM
      1 C         141.3183  139.9557  164.6767 C.3     1  UNL1        0.2126
      2 C         141.0825  140.4591  163.2835 C.3     1  UNL1        0.1448
      3 N         142.4185  140.6904  162.6419 N.am    1  UNL1       -0.2435
      4 C         143.4800  140.3299  163.6385 C.2     1  UNL1        0.4052
      5 O         144.9614  140.4095  163.4166 O.2     1  UNL1       -0.2262
      6 O         142.8001  139.8759  164.8961 O.3     1  UNL1       -0.4319
      7 C         141.3786  141.7935  168.7839 C.ar    1  UNL1        0.1388
      8 C         140.3188  141.4333  169.7823 C.ar    1  UNL1        0.0384
      9 C         139.2389  140.4604  169.4117 C.ar    1  UNL1        0.0222
     10 C         139.2188  139.8478  168.0427 C.ar    1  UNL1        0.0813
     11 N         138.1388  138.8750  167.6721 N.ar    1  UNL1       -0.2439
     12 C         138.1187  138.2624  166.3031 C.ar    1  UNL1        0.0986
     13 C         139.1786  138.6226  165.3046 C.ar    1  UNL1        0.0199
     14 C         140.2585  139.5955  165.6751 C.ar    1  UNL1        0.0222
     15 C         140.2786  140.2081  167.0442 C.ar    1  UNL1        0.0201
     16 C         141.3585  141.1809  167.4148 C.ar    1  UNL1        0.0382
     17 C         143.7567  142.2676  169.7166 C.3     1  UNL1        0.2525
     18 O         142.4585  142.7664  169.1544 O.3     1  UNL1       -0.4714
     19 C         142.6520  141.1937  161.2482 C.3     1  UNL1        0.0815
     20 C         142.7793  140.2230  160.1117 C.3     1  UNL1        0.0373
     21 C         143.0128  140.7263  158.7181 C.3     1  UNL1        0.0741
     22 N         143.1190  142.2003  158.4610 N.3     1  UNL1       -0.2676
     23 C         142.9917  143.1710  159.5975 C.3     1  UNL1        0.0741
     24 C         142.7582  142.6676  160.9911 C.3     1  UNL1        0.0373
     25 C         143.3524  142.7036  157.0673 C.3     1  UNL1        0.1186
     26 C         144.6792  142.4836  156.4030 C.2     1  UNL1        0.0748
     27 C         146.0110  142.4259  157.0908 C.2     1  UNL1        0.0173
     28 C         147.0618  142.1892  156.0470 C.2     1  UNL1        0.0151
     29 C         148.5519  142.0429  156.1380 C.2     1  UNL1        0.0009
     30 C         149.3597  141.8080  154.8961 C.2     1  UNL1       -0.0041
     31 C         148.6774  141.7194  153.5631 C.2     1  UNL1       -0.0198
     32 C         147.1874  141.8657  153.4721 C.3     1  UNL1        0.0717
     33 C         146.3796  142.1006  154.7140 C.2     1  UNL1        0.0630
     34 N         144.9070  142.2825  154.9341 N.2     1  UNL1       -0.2523
@<TRIPOS>BOND
     1    17    18    1
     2    18     7    1
     3     7     8   ar
     4     8     9   ar
     5     9    10   ar
     6    10    11   ar
     7    11    12   ar
     8    12    13   ar
     9    13    14   ar
    10     1    14    1
    11     1     2    1
    12     2     3    1
    13     3    19    1
    14    19    20    1
    15    20    21    1
    16    21    22    1
    17    22    25    1
    18    25    26    1
    19    26    27    2
    20    27    28    1
    21    28    29    2
    22    29    30    1
    23    30    31    2
    24    31    32    1
    25    32    33    1
    26    33    34    2
    27    22    23    1
    28    23    24    1
    29     3     4   am
    30     4     5    2
    31     4     6    1
    32    14    15   ar
    33    15    16   ar
    34    16     7   ar
    35    15    10   ar
    36     6     1    1
    37    24    19    1
    38    34    26    1
    39    33    28    1
