@<TRIPOS>MOLECULE
*****
 35 39 0 0 0
SMALL
GASTEIGER

@<TRIPOS>ATOM
      1 N         138.7199  141.9530  160.7892 N.3     1  UNL1       -0.2698
      2 C         139.8646  142.4719  161.6080 C.3     1  UNL1        0.0938
      3 C         139.9974  142.0741  163.0482 C.3     1  UNL1        0.1081
      4 N         138.9857  141.1574  163.6696 N.pl3   1  UNL1       -0.3046
      5 C         137.8411  140.6385  162.8507 C.3     1  UNL1        0.1081
      6 C         137.7082  141.0363  161.4105 C.3     1  UNL1        0.0938
      7 C         139.1187  140.7596  165.1097 C.ar    1  UNL1        0.0481
      8 C         138.3768  139.5638  165.6291 C.ar    1  UNL1        0.0176
      9 C         138.5098  139.1661  167.0693 C.ar    1  UNL1        0.0388
     10 C         139.3846  139.9641  167.9901 C.ar    1  UNL1        0.1456
     11 O         139.7087  139.8144  169.4469 O.2     1  UNL1       -0.4489
     12 C         140.6509  140.9177  169.8279 C.ar    1  UNL1        0.1981
     13 C         140.9090  141.7493  168.6066 C.ar    1  UNL1        0.0453
     14 C         140.1264  141.1599  167.4707 C.ar    1  UNL1        0.0390
     15 C         139.9934  141.5576  166.0305 C.ar    1  UNL1        0.0177
     16 C         141.2327  141.1488  171.1911 C.2     1  UNL1        0.2775
     17 N         142.4849  140.4332  171.6032 N.am    1  UNL1       -0.3228
     18 O         140.5623  142.0955  172.1420 O.2     1  UNL1       -0.2670
     19 H         142.9249  139.8118  170.9791 H       1  UNL1        0.1453
     20 H         142.8667  140.5849  172.4979 H       1  UNL1        0.1453
     21 C         138.5870  142.3507  159.3490 C.3     1  UNL1        0.0722
     22 C         139.4003  141.6523  158.2999 C.3     1  UNL1        0.0177
     23 C         139.5442  140.1596  158.3328 C.3     1  UNL1        0.0061
     24 C         140.7370  139.5355  158.9943 C.3     1  UNL1        0.0277
     25 C         143.5175  139.9605  162.9698 C.2     1  UNL1        0.0507
     26 C         143.0045  139.1568  164.1277 C.2     1  UNL1        0.0078
     27 C         141.7561  138.3387  163.9783 C.2     1  UNL1        0.0191
     28 C         141.0207  138.3244  162.6710 C.2     1  UNL1        0.0774
     29 N         139.7730  137.6190  162.2290 N.2     1  UNL1       -0.2445
     30 C         139.5148  137.9868  160.7979 C.2     1  UNL1        0.0943
     31 C         140.6030  138.9195  160.3554 C.2     1  UNL1       -0.0052
     32 C         141.5337  139.1282  161.5132 C.2     1  UNL1       -0.0019
     33 C         142.7821  139.9462  161.6625 C.3     1  UNL1        0.0643
     34 N         146.0143  141.5966  163.2685 N.1     1  UNL1       -0.1911
     35 C         144.7659  140.7786  163.1192 C.1     1  UNL1        0.0964
@<TRIPOS>BOND
     1    34    35    3
     2    35    25    1
     3    25    26    2
     4    26    27    1
     5    27    28    2
     6    28    29    1
     7    29    30    2
     8    30    31    1
     9    31    24    1
    10    24    23    1
    11    23    22    1
    12    22    21    1
    13    21     1    1
    14     1     2    1
    15     2     3    1
    16     3     4    1
    17     4     7    1
    18     7     8   ar
    19     8     9   ar
    20     9    10   ar
    21    10    11   ar
    22    11    12   ar
    23    12    16    1
    24    16    17   am
    25    16    18    2
    26    12    13   ar
    27    13    14   ar
    28    14    15   ar
    29     4     5    1
    30     5     6    1
    31    31    32    2
    32    32    33    1
    33    33    25    1
    34    32    28    1
    35     6     1    1
    36    15     7   ar
    37    14    10   ar
    38    17    19    1
    39    17    20    1
@<TRIPOS>MOLECULE
*****
 35 39 0 0 0
SMALL
GASTEIGER

@<TRIPOS>ATOM
      1 N         138.6233  141.4096  160.7123 N.3     1  UNL1       -0.2698
      2 C         138.8944  140.0057  161.1658 C.3     1  UNL1        0.0938
      3 C         139.0180  139.7010  162.6293 C.3     1  UNL1        0.1081
      4 N         138.8706  140.8001  163.6394 N.pl3   1  UNL1       -0.3046
      5 C         138.5995  142.2040  163.1858 C.3     1  UNL1        0.1081
      6 C         138.4759  142.5087  161.7223 C.3     1  UNL1        0.0938
      7 C         138.9942  140.4954  165.1029 C.ar    1  UNL1        0.0481
      8 C         138.2032  139.3718  165.7044 C.ar    1  UNL1        0.0176
      9 C         138.3268  139.0671  167.1679 C.ar    1  UNL1        0.0388
     10 C         139.2415  139.8859  168.0298 C.ar    1  UNL1        0.1456
     11 O         139.5672  139.8210  169.4926 O.2     1  UNL1       -0.4489
     12 C         140.5595  140.9044  169.7950 C.ar    1  UNL1        0.1981
     13 C         140.8472  141.6390  168.5192 C.ar    1  UNL1        0.0453
     14 C         140.0326  141.0095  167.4283 C.ar    1  UNL1        0.0390
     15 C         139.9089  141.3142  165.9648 C.ar    1  UNL1        0.0177
     16 C         141.1590  141.2012  171.1376 C.2     1  UNL1        0.2775
     17 N         142.4283  140.5220  171.5590 N.am    1  UNL1       -0.3228
     18 O         140.4892  142.1772  172.0589 O.2     1  UNL1       -0.2670
     19 H         142.8679  139.8814  170.9543 H       1  UNL1        0.1453
     20 H         142.8217  140.7168  172.4402 H       1  UNL1        0.1453
     21 C         138.4997  141.7143  159.2488 C.3     1  UNL1        0.0722
     22 C         139.0183  143.0133  158.7068 C.3     1  UNL1        0.0177
     23 C         140.4751  143.1623  158.3821 C.3     1  UNL1        0.0061
     24 C         141.2315  144.3653  158.8625 C.3     1  UNL1        0.0277
     25 C         143.6816  143.4055  162.9602 C.2     1  UNL1        0.0507
     26 C         143.1335  144.1349  164.1507 C.2     1  UNL1        0.0078
     27 C         141.9503  145.0436  163.9941 C.2     1  UNL1        0.0191
     28 C         141.3153  145.2227  162.6471 C.2     1  UNL1        0.0774
     29 N         140.1475  146.0453  162.1893 N.2     1  UNL1       -0.2445
     30 C         139.9740  145.8243  160.7158 C.2     1  UNL1        0.0943
     31 C         141.0345  144.8650  160.2630 C.2     1  UNL1       -0.0052
     32 C         141.8634  144.4932  161.4566 C.2     1  UNL1       -0.0019
     33 C         143.0466  143.5846  161.6132 C.3     1  UNL1        0.0643
     34 N         146.0480  141.5883  163.2734 N.1     1  UNL1       -0.1911
     35 C         144.8648  142.4969  163.1168 C.1     1  UNL1        0.0964
@<TRIPOS>BOND
     1    34    35    3
     2    35    25    1
     3    25    26    2
     4    26    27    1
     5    27    28    2
     6    28    29    1
     7    29    30    2
     8    30    31    1
     9    31    24    1
    10    24    23    1
    11    23    22    1
    12    22    21    1
    13    21     1    1
    14     1     2    1
    15     2     3    1
    16     3     4    1
    17     4     7    1
    18     7     8   ar
    19     8     9   ar
    20     9    10   ar
    21    10    11   ar
    22    11    12   ar
    23    12    16    1
    24    16    17   am
    25    16    18    2
    26    12    13   ar
    27    13    14   ar
    28    14    15   ar
    29     4     5    1
    30     5     6    1
    31    31    32    2
    32    32    33    1
    33    33    25    1
    34    32    28    1
    35     6     1    1
    36    15     7   ar
    37    14    10   ar
    38    17    19    1
    39    17    20    1
@<TRIPOS>MOLECULE
*****
 35 39 0 0 0
SMALL
GASTEIGER

@<TRIPOS>ATOM
      1 N         139.0288  141.0083  160.6403 N.3     1  UNL1       -0.2698
      2 C         140.3242  140.6493  161.3059 C.3     1  UNL1        0.0938
      3 C         140.3681  140.4221  162.7880 C.3     1  UNL1        0.1081
      4 N         139.1167  140.5539  163.6045 N.pl3   1  UNL1       -0.3046
      5 C         137.8212  140.9129  162.9388 C.3     1  UNL1        0.1081
      6 C         137.7773  141.1401  161.4567 C.3     1  UNL1        0.0938
      7 C         139.1606  140.3267  165.0865 C.ar    1  UNL1        0.0481
      8 C         138.2383  139.3275  165.7198 C.ar    1  UNL1        0.0176
      9 C         138.2824  139.1004  167.2018 C.ar    1  UNL1        0.0388
     10 C         139.2487  139.8724  168.0505 C.ar    1  UNL1        0.1456
     11 O         139.5185  139.8628  169.5260 O.2     1  UNL1       -0.4489
     12 C         140.6075  140.8560  169.8046 C.ar    1  UNL1        0.1981
     13 C         141.0108  141.4794  168.5013 C.ar    1  UNL1        0.0453
     14 C         140.1710  140.8715  167.4172 C.ar    1  UNL1        0.0390
     15 C         140.1269  141.0987  165.9352 C.ar    1  UNL1        0.0177
     16 C         141.1908  141.1705  171.1503 C.2     1  UNL1        0.2775
     17 N         142.4696  140.5179  171.5845 N.am    1  UNL1       -0.3228
     18 O         140.4952  142.1376  172.0617 O.2     1  UNL1       -0.2670
     19 H         142.9262  139.8831  170.9863 H       1  UNL1        0.1453
     20 H         142.8525  140.7243  172.4677 H       1  UNL1        0.1453
     21 C         138.9848  141.2355  159.1583 C.3     1  UNL1        0.0722
     22 C         138.4903  142.5430  158.6144 C.3     1  UNL1        0.0177
     23 C         139.4552  143.5117  157.9974 C.3     1  UNL1        0.0061
     24 C         140.1421  144.5341  158.8534 C.3     1  UNL1        0.0277
     25 C         140.5058  144.3379  163.7057 C.2     1  UNL1        0.0507
     26 C         141.8523  143.8676  164.1701 C.2     1  UNL1        0.0078
     27 C         142.9114  143.5177  163.1672 C.2     1  UNL1        0.0191
     28 C         142.6240  143.6381  161.6999 C.2     1  UNL1        0.0774
     29 N         143.4638  143.3668  160.4871 N.2     1  UNL1       -0.2445
     30 C         142.6363  143.6694  159.2731 C.2     1  UNL1        0.0943
     31 C         141.2851  144.1277  159.7357 C.2     1  UNL1       -0.0052
     32 C         141.2775  144.1084  161.2356 C.2     1  UNL1       -0.0019
     33 C         140.2184  144.4583  162.2385 C.3     1  UNL1        0.0643
     34 N         138.3876  145.0378  165.7116 N.1     1  UNL1       -0.1911
     35 C         139.4467  144.6879  164.7087 C.1     1  UNL1        0.0964
@<TRIPOS>BOND
     1    34    35    3
     2    35    25    1
     3    25    26    2
     4    26    27    1
     5    27    28    2
     6    28    29    1
     7    29    30    2
     8    30    31    1
     9    31    24    1
    10    24    23    1
    11    23    22    1
    12    22    21    1
    13    21     1    1
    14     1     2    1
    15     2     3    1
    16     3     4    1
    17     4     7    1
    18     7     8   ar
    19     8     9   ar
    20     9    10   ar
    21    10    11   ar
    22    11    12   ar
    23    12    16    1
    24    16    17   am
    25    16    18    2
    26    12    13   ar
    27    13    14   ar
    28    14    15   ar
    29     4     5    1
    30     5     6    1
    31    31    32    2
    32    32    33    1
    33    33    25    1
    34    32    28    1
    35     6     1    1
    36    15     7   ar
    37    14    10   ar
    38    17    19    1
    39    17    20    1
@<TRIPOS>MOLECULE
*****
 35 39 0 0 0
SMALL
GASTEIGER

@<TRIPOS>ATOM
      1 N         139.7624  138.8231  160.6755 N.3     1  UNL1       -0.2698
      2 C         138.4098  139.0170  161.2942 C.3     1  UNL1        0.0938
      3 C         138.2824  139.1950  162.7782 C.3     1  UNL1        0.1081
      4 N         139.5076  139.1789  163.6434 N.pl3   1  UNL1       -0.3046
      5 C         140.8602  138.9850  163.0247 C.3     1  UNL1        0.1081
      6 C         140.9876  138.8070  161.5408 C.3     1  UNL1        0.0938
      7 C         139.3801  139.3569  165.1274 C.ar    1  UNL1        0.0481
      8 C         138.1044  138.9806  165.8210 C.ar    1  UNL1        0.0176
      9 C         137.9770  139.1586  167.3049 C.ar    1  UNL1        0.0388
     10 C         139.1252  139.7127  168.0952 C.ar    1  UNL1        0.1456
     11 O         139.2915  139.9985  169.5583 O.2     1  UNL1       -0.4489
     12 C         140.6699  140.5513  169.7689 C.ar    1  UNL1        0.1981
     13 C         141.3556  140.6072  168.4360 C.ar    1  UNL1        0.0453
     14 C         140.4009  140.0889  167.4016 C.ar    1  UNL1        0.0390
     15 C         140.5283  139.9110  165.9177 C.ar    1  UNL1        0.0177
     16 C         141.2593  140.9739  171.0819 C.2     1  UNL1        0.2775
     17 N         142.5938  140.4406  171.5114 N.am    1  UNL1       -0.3228
     18 O         140.5140  141.9299  171.9655 O.2     1  UNL1       -0.2670
     19 H         143.0830  139.8132  170.9315 H       1  UNL1        0.1453
     20 H         142.9806  140.7180  172.3732 H       1  UNL1        0.1453
     21 C         139.8899  138.6452  159.1916 C.3     1  UNL1        0.0722
     22 C         140.7550  139.5772  158.3960 C.3     1  UNL1        0.0177
     23 C         140.4648  141.0489  158.3905 C.3     1  UNL1        0.0061
     24 C         140.8849  141.9006  159.5515 C.3     1  UNL1        0.0277
     25 C         141.3624  142.9721  164.2780 C.2     1  UNL1        0.0507
     26 C         140.0664  143.3731  164.9179 C.2     1  UNL1        0.0078
     27 C         138.8075  143.4097  164.1032 C.2     1  UNL1        0.0191
     28 C         138.8446  143.0453  162.6486 C.2     1  UNL1        0.0774
     29 N         137.7732  142.9893  161.6003 N.2     1  UNL1       -0.2445
     30 C         138.4071  142.5536  160.3125 C.2     1  UNL1        0.0943
     31 C         139.8702  142.3404  160.5649 C.2     1  UNL1       -0.0052
     32 C         140.1406  142.6444  162.0088 C.2     1  UNL1       -0.0019
     33 C         141.3995  142.6077  162.8235 C.3     1  UNL1        0.0643
     34 N         143.8803  142.8989  165.9074 N.1     1  UNL1       -0.1911
     35 C         142.6213  142.9355  165.0927 C.1     1  UNL1        0.0964
@<TRIPOS>BOND
     1    34    35    3
     2    35    25    1
     3    25    26    2
     4    26    27    1
     5    27    28    2
     6    28    29    1
     7    29    30    2
     8    30    31    1
     9    31    24    1
    10    24    23    1
    11    23    22    1
    12    22    21    1
    13    21     1    1
    14     1     2    1
    15     2     3    1
    16     3     4    1
    17     4     7    1
    18     7     8   ar
    19     8     9   ar
    20     9    10   ar
    21    10    11   ar
    22    11    12   ar
    23    12    16    1
    24    16    17   am
    25    16    18    2
    26    12    13   ar
    27    13    14   ar
    28    14    15   ar
    29     4     5    1
    30     5     6    1
    31    31    32    2
    32    32    33    1
    33    33    25    1
    34    32    28    1
    35     6     1    1
    36    15     7   ar
    37    14    10   ar
    38    17    19    1
    39    17    20    1
@<TRIPOS>MOLECULE
*****
 35 39 0 0 0
SMALL
GASTEIGER

@<TRIPOS>ATOM
      1 N         139.4326  142.3809  160.6173 N.3     1  UNL1       -0.2698
      2 C         138.5724  142.3178  161.8445 C.3     1  UNL1        0.0938
      3 C         139.2063  142.2734  163.2033 C.3     1  UNL1        0.1081
      4 N         140.7004  142.2921  163.3349 N.pl3   1  UNL1       -0.3046
      5 C         141.5606  142.3552  162.1076 C.3     1  UNL1        0.1081
      6 C         140.9267  142.3996  160.7489 C.3     1  UNL1        0.0938
      7 C         141.3343  142.2477  164.6936 C.ar    1  UNL1        0.0481
      8 C         142.7977  142.5382  164.8484 C.ar    1  UNL1        0.0176
      9 C         143.4314  142.4938  166.2072 C.ar    1  UNL1        0.0388
     10 C         142.6018  142.1590  167.4112 C.ar    1  UNL1        0.1456
     11 O         142.9465  142.0405  168.8662 O.2     1  UNL1       -0.4489
     12 C         141.6961  141.6768  169.6107 C.ar    1  UNL1        0.1981
     13 C         140.5786  141.5705  168.6157 C.ar    1  UNL1        0.0453
     14 C         141.1384  141.8685  167.2564 C.ar    1  UNL1        0.0390
     15 C         140.5046  141.9129  165.8976 C.ar    1  UNL1        0.0177
     16 C         141.5831  141.4579  171.0903 C.2     1  UNL1        0.2775
     17 N         142.4661  140.4534  171.7694 N.am    1  UNL1       -0.3228
     18 O         140.5870  142.2434  171.8908 O.2     1  UNL1       -0.2670
     19 H         143.1198  139.9378  171.2441 H       1  UNL1        0.1453
     20 H         142.3919  140.3097  172.7406 H       1  UNL1        0.1453
     21 C         138.7988  142.4252  159.2585 C.3     1  UNL1        0.0722
     22 C         138.1724  141.1900  158.6825 C.3     1  UNL1        0.0177
     23 C         138.8972  139.8787  158.7532 C.3     1  UNL1        0.0061
     24 C         138.8684  139.0730  160.0181 C.3     1  UNL1        0.0277
     25 C         139.5276  138.5182  164.8113 C.2     1  UNL1        0.0507
     26 C         140.9721  138.3687  165.1867 C.2     1  UNL1        0.0078
     27 C         142.0304  138.3999  164.1242 C.2     1  UNL1        0.0191
     28 C         141.6442  138.5808  162.6861 C.2     1  UNL1        0.0774
     29 N         142.4595  138.6510  161.4290 N.2     1  UNL1       -0.2445
     30 C         141.5190  138.8440  160.2766 C.2     1  UNL1        0.0943
     31 C         140.1223  138.8930  160.8214 C.2     1  UNL1       -0.0052
     32 C         140.1997  138.7303  162.3106 C.2     1  UNL1       -0.0019
     33 C         139.1414  138.6990  163.3732 C.3     1  UNL1        0.0643
     34 N         137.4111  138.4556  166.9364 N.1     1  UNL1       -0.1911
     35 C         138.4693  138.4869  165.8738 C.1     1  UNL1        0.0964
@<TRIPOS>BOND
     1    34    35    3
     2    35    25    1
     3    25    26    2
     4    26    27    1
     5    27    28    2
     6    28    29    1
     7    29    30    2
     8    30    31    1
     9    31    24    1
    10    24    23    1
    11    23    22    1
    12    22    21    1
    13    21     1    1
    14     1     2    1
    15     2     3    1
    16     3     4    1
    17     4     7    1
    18     7     8   ar
    19     8     9   ar
    20     9    10   ar
    21    10    11   ar
    22    11    12   ar
    23    12    16    1
    24    16    17   am
    25    16    18    2
    26    12    13   ar
    27    13    14   ar
    28    14    15   ar
    29     4     5    1
    30     5     6    1
    31    31    32    2
    32    32    33    1
    33    33    25    1
    34    32    28    1
    35     6     1    1
    36    15     7   ar
    37    14    10   ar
    38    17    19    1
    39    17    20    1
@<TRIPOS>MOLECULE
*****
 35 39 0 0 0
SMALL
GASTEIGER

@<TRIPOS>ATOM
      1 N         142.0073  139.0676  160.5209 N.3     1  UNL1       -0.2698
      2 C         141.9498  137.9172  161.4818 C.3     1  UNL1        0.0938
      3 C         141.9516  138.1737  162.9597 C.3     1  UNL1        0.1081
      4 N         142.0110  139.5805  163.4768 N.pl3   1  UNL1       -0.3046
      5 C         142.0685  140.7309  162.5158 C.3     1  UNL1        0.1081
      6 C         142.0667  140.4744  161.0380 C.3     1  UNL1        0.0938
      7 C         142.0128  139.8369  164.9547 C.ar    1  UNL1        0.0481
      8 C         142.7569  138.9152  165.8749 C.ar    1  UNL1        0.0176
      9 C         142.7586  139.1716  167.3528 C.ar    1  UNL1        0.0388
     10 C         142.0163  140.3497  167.9105 C.ar    1  UNL1        0.1456
     11 O         141.8397  140.8526  169.3126 O.2     1  UNL1       -0.4489
     12 C         140.9864  142.0851  169.2589 C.ar    1  UNL1        0.1981
     13 C         140.6357  142.3440  167.8236 C.ar    1  UNL1        0.0453
     14 C         141.2722  141.2714  166.9903 C.ar    1  UNL1        0.0390
     15 C         141.2705  141.0150  165.5124 C.ar    1  UNL1        0.0177
     16 C         140.5588  142.9133  170.4342 C.2     1  UNL1        0.2775
     17 N         140.1516  144.3432  170.2356 N.am    1  UNL1       -0.3228
     18 O         140.5385  142.3116  171.8080 O.2     1  UNL1       -0.2670
     19 H         140.1650  144.7382  169.3339 H       1  UNL1        0.1453
     20 H         139.8710  144.8868  171.0070 H       1  UNL1        0.1453
     21 C         142.0055  138.8112  159.0430 C.3     1  UNL1        0.0722
     22 C         140.7185  138.5030  158.3369 C.3     1  UNL1        0.0177
     23 C         139.5848  139.4840  158.3818 C.3     1  UNL1        0.0061
     24 C         138.6977  139.5504  159.5895 C.3     1  UNL1        0.0277
     25 C         138.0609  140.5731  164.3081 C.2     1  UNL1        0.0507
     26 C         137.8750  142.0390  164.5661 C.2     1  UNL1        0.0078
     27 C         137.8986  143.0105  163.4235 C.2     1  UNL1        0.0191
     28 C         138.1080  142.5163  162.0229 C.2     1  UNL1        0.0774
     29 N         138.1785  143.2313  160.7062 N.2     1  UNL1       -0.2445
     30 C         138.4080  142.2073  159.6344 C.2     1  UNL1        0.0943
     31 C         138.4793  140.8594  160.2886 C.2     1  UNL1       -0.0052
     32 C         138.2939  141.0504  161.7649 C.2     1  UNL1       -0.0019
     33 C         138.2704  140.0788  162.9075 C.3     1  UNL1        0.0643
     34 N         138.0138  138.6299  166.5932 N.1     1  UNL1       -0.1911
     35 C         138.0374  139.6015  165.4507 C.1     1  UNL1        0.0964
@<TRIPOS>BOND
     1    34    35    3
     2    35    25    1
     3    25    26    2
     4    26    27    1
     5    27    28    2
     6    28    29    1
     7    29    30    2
     8    30    31    1
     9    31    24    1
    10    24    23    1
    11    23    22    1
    12    22    21    1
    13    21     1    1
    14     1     2    1
    15     2     3    1
    16     3     4    1
    17     4     7    1
    18     7     8   ar
    19     8     9   ar
    20     9    10   ar
    21    10    11   ar
    22    11    12   ar
    23    12    16    1
    24    16    17   am
    25    16    18    2
    26    12    13   ar
    27    13    14   ar
    28    14    15   ar
    29     4     5    1
    30     5     6    1
    31    31    32    2
    32    32    33    1
    33    33    25    1
    34    32    28    1
    35     6     1    1
    36    15     7   ar
    37    14    10   ar
    38    17    19    1
    39    17    20    1
@<TRIPOS>MOLECULE
*****
 35 39 0 0 0
SMALL
GASTEIGER

@<TRIPOS>ATOM
      1 N         139.8993  141.4173  160.3091 N.3     1  UNL1       -0.2698
      2 C         141.1159  140.5865  160.5912 C.3     1  UNL1        0.0938
      3 C         141.4978  140.2727  162.0075 C.3     1  UNL1        0.1081
      4 N         140.6633  140.7897  163.1415 N.pl3   1  UNL1       -0.3046
      5 C         139.4467  141.6206  162.8593 C.3     1  UNL1        0.1081
      6 C         139.0647  141.9344  161.4432 C.3     1  UNL1        0.0938
      7 C         141.0453  140.4759  164.5577 C.ar    1  UNL1        0.0481
      8 C         142.3663  139.8294  164.8525 C.ar    1  UNL1        0.0176
      9 C         142.7482  139.5156  166.2687 C.ar    1  UNL1        0.0388
     10 C         141.8092  139.8482  167.3901 C.ar    1  UNL1        0.1456
     11 O         141.9115  139.6588  168.8745 O.2     1  UNL1       -0.4489
     12 C         140.6537  140.1882  169.4971 C.ar    1  UNL1        0.1981
     13 C         139.7740  140.7049  168.3975 C.ar    1  UNL1        0.0453
     14 C         140.4881  140.4947  167.0953 C.ar    1  UNL1        0.0390
     15 C         140.1062  140.8085  165.6791 C.ar    1  UNL1        0.0177
     16 C         140.3321  140.1991  170.9622 C.2     1  UNL1        0.2775
     17 N         139.6115  139.0379  171.5805 N.am    1  UNL1       -0.3228
     18 O         140.7310  141.3712  171.8090 O.2     1  UNL1       -0.2670
     19 H         139.3496  138.2686  171.0248 H       1  UNL1        0.1453
     20 H         139.4004  139.0450  172.5421 H       1  UNL1        0.1453
     21 C         139.5173  141.7312  158.8929 C.3     1  UNL1        0.0722
     22 C         139.7951  143.0915  158.3251 C.3     1  UNL1        0.0177
     23 C         141.1637  143.6921  158.4520 C.3     1  UNL1        0.0061
     24 C         141.3466  144.9970  159.1688 C.3     1  UNL1        0.0277
     25 C         143.5490  143.2107  163.1280 C.2     1  UNL1        0.0507
     26 C         142.8426  143.5732  164.4005 C.2     1  UNL1        0.0078
     27 C         141.5943  144.4036  164.3551 C.2     1  UNL1        0.0191
     28 C         141.0524  144.8716  163.0370 C.2     1  UNL1        0.0774
     29 N         139.8511  145.6966  162.6815 N.2     1  UNL1       -0.2445
     30 C         139.8151  145.8440  161.1892 C.2     1  UNL1        0.0943
     31 C         140.9941  145.1101  160.6224 C.2     1  UNL1       -0.0052
     32 C         141.7588  144.5091  161.7644 C.2     1  UNL1       -0.0019
     33 C         143.0071  143.6787  161.8099 C.3     1  UNL1        0.0643
     34 N         146.0456  141.5498  163.2189 N.1     1  UNL1       -0.1911
     35 C         144.7973  142.3803  163.1734 C.1     1  UNL1        0.0964
@<TRIPOS>BOND
     1    34    35    3
     2    35    25    1
     3    25    26    2
     4    26    27    1
     5    27    28    2
     6    28    29    1
     7    29    30    2
     8    30    31    1
     9    31    24    1
    10    24    23    1
    11    23    22    1
    12    22    21    1
    13    21     1    1
    14     1     2    1
    15     2     3    1
    16     3     4    1
    17     4     7    1
    18     7     8   ar
    19     8     9   ar
    20     9    10   ar
    21    10    11   ar
    22    11    12   ar
    23    12    16    1
    24    16    17   am
    25    16    18    2
    26    12    13   ar
    27    13    14   ar
    28    14    15   ar
    29     4     5    1
    30     5     6    1
    31    31    32    2
    32    32    33    1
    33    33    25    1
    34    32    28    1
    35     6     1    1
    36    15     7   ar
    37    14    10   ar
    38    17    19    1
    39    17    20    1
@<TRIPOS>MOLECULE
*****
 35 39 0 0 0
SMALL
GASTEIGER

@<TRIPOS>ATOM
      1 N         142.5548  142.2801  160.5726 N.3     1  UNL1       -0.2698
      2 C         142.6040  143.3205  161.6520 C.3     1  UNL1        0.0938
      3 C         142.1337  142.9871  163.0369 C.3     1  UNL1        0.1081
      4 N         141.6142  141.6135  163.3422 N.pl3   1  UNL1       -0.3046
      5 C         141.5650  140.5731  162.2627 C.3     1  UNL1        0.1081
      6 C         142.0353  140.9065  160.8779 C.3     1  UNL1        0.0938
      7 C         141.1439  141.2802  164.7270 C.ar    1  UNL1        0.0481
      8 C         140.5841  139.9202  165.0220 C.ar    1  UNL1        0.0176
      9 C         140.1138  139.5870  166.4068 C.ar    1  UNL1        0.0388
     10 C         140.2034  140.6137  167.4967 C.ar    1  UNL1        0.1456
     11 O         139.8213  140.5743  168.9467 O.2     1  UNL1       -0.4489
     12 C         140.1450  141.9099  169.5478 C.ar    1  UNL1        0.1981
     13 C         140.7271  142.7748  168.4694 C.ar    1  UNL1        0.0453
     14 C         140.7632  141.9737  167.2017 C.ar    1  UNL1        0.0390
     15 C         141.2334  142.3069  165.8169 C.ar    1  UNL1        0.0177
     16 C         139.9252  142.3103  170.9766 C.2     1  UNL1        0.2775
     17 N         139.0093  143.4524  171.3030 N.am    1  UNL1       -0.3228
     18 O         140.6212  141.5684  172.0789 O.2     1  UNL1       -0.2670
     19 H         138.5525  143.9393  170.5795 H       1  UNL1        0.1453
     20 H         138.8650  143.7152  172.2408 H       1  UNL1        0.1453
     21 C         143.0251  142.6134  159.1877 C.3     1  UNL1        0.0722
     22 C         142.3189  143.6690  158.3896 C.3     1  UNL1        0.0177
     23 C         140.8530  143.5360  158.1010 C.3     1  UNL1        0.0061
     24 C         139.8479  143.8195  159.1777 C.3     1  UNL1        0.0277
     25 C         138.2182  143.3610  163.7439 C.2     1  UNL1        0.0507
     26 C         137.5558  142.0390  163.9957 C.2     1  UNL1        0.0078
     27 C         137.4548  141.0284  162.8918 C.2     1  UNL1        0.0191
     28 C         138.0160  141.3400  161.5361 C.2     1  UNL1        0.0774
     29 N         138.0641  140.5476  160.2634 N.2     1  UNL1       -0.2445
     30 C         138.7562  141.3800  159.2250 C.2     1  UNL1        0.0943
     31 C         139.1358  142.6868  159.8560 C.2     1  UNL1       -0.0052
     32 C         138.6784  142.6620  161.2844 C.2     1  UNL1       -0.0019
     33 C         138.7794  143.6726  162.3883 C.3     1  UNL1        0.0643
     34 N         138.4203  145.3821  165.9517 N.1     1  UNL1       -0.1911
     35 C         138.3192  144.3716  164.8478 C.1     1  UNL1        0.0964
@<TRIPOS>BOND
     1    34    35    3
     2    35    25    1
     3    25    26    2
     4    26    27    1
     5    27    28    2
     6    28    29    1
     7    29    30    2
     8    30    31    1
     9    31    24    1
    10    24    23    1
    11    23    22    1
    12    22    21    1
    13    21     1    1
    14     1     2    1
    15     2     3    1
    16     3     4    1
    17     4     7    1
    18     7     8   ar
    19     8     9   ar
    20     9    10   ar
    21    10    11   ar
    22    11    12   ar
    23    12    16    1
    24    16    17   am
    25    16    18    2
    26    12    13   ar
    27    13    14   ar
    28    14    15   ar
    29     4     5    1
    30     5     6    1
    31    31    32    2
    32    32    33    1
    33    33    25    1
    34    32    28    1
    35     6     1    1
    36    15     7   ar
    37    14    10   ar
    38    17    19    1
    39    17    20    1
@<TRIPOS>MOLECULE
*****
 35 39 0 0 0
SMALL
GASTEIGER

@<TRIPOS>ATOM
      1 N         139.8861  140.4898  160.5777 N.3     1  UNL1       -0.2698
      2 C         139.4271  139.1992  161.1889 C.3     1  UNL1        0.0938
      3 C         139.3161  139.0730  162.6796 C.3     1  UNL1        0.1081
      4 N         139.6641  140.2374  163.5589 N.pl3   1  UNL1       -0.3046
      5 C         140.1231  141.5280  162.9475 C.3     1  UNL1        0.1081
      6 C         140.2341  141.6542  161.4570 C.3     1  UNL1        0.0938
      7 C         139.5531  140.1111  165.0494 C.ar    1  UNL1        0.0481
      8 C         138.4759  139.2585  165.6517 C.ar    1  UNL1        0.0176
      9 C         138.3650  139.1323  167.1422 C.ar    1  UNL1        0.0388
     10 C         139.3312  139.8585  168.0304 C.ar    1  UNL1        0.1456
     11 O         139.4680  139.9246  169.5227 O.2     1  UNL1       -0.4489
     12 C         140.6297  140.8179  169.8427 C.ar    1  UNL1        0.1981
     13 C         141.2109  141.3040  168.5481 C.ar    1  UNL1        0.0453
     14 C         140.4084  140.7111  167.4281 C.ar    1  UNL1        0.0390
     15 C         140.5194  140.8373  165.9376 C.ar    1  UNL1        0.0177
     16 C         141.1235  141.1643  171.2161 C.2     1  UNL1        0.2775
     17 N         142.3684  140.5202  171.7501 N.am    1  UNL1       -0.3228
     18 O         140.3723  142.1548  172.0554 O.2     1  UNL1       -0.2670
     19 H         142.8614  139.8700  171.1992 H       1  UNL1        0.1453
     20 H         142.6925  140.7475  172.6515 H       1  UNL1        0.1453
     21 C         139.9971  140.6161  159.0872 C.3     1  UNL1        0.0722
     22 C         141.3288  140.4489  158.4174 C.3     1  UNL1        0.0177
     23 C         142.3611  139.5406  159.0169 C.3     1  UNL1        0.0061
     24 C         143.6791  140.0972  159.4674 C.3     1  UNL1        0.0277
     25 C         143.8012  140.3762  164.3278 C.2     1  UNL1        0.0507
     26 C         143.8335  141.7895  164.8292 C.2     1  UNL1        0.0078
     27 C         143.8261  142.9309  163.8560 C.2     1  UNL1        0.0191
     28 C         143.7864  142.6590  162.3814 C.2     1  UNL1        0.0774
     29 N         143.7705  143.5731  161.1923 N.2     1  UNL1       -0.2445
     30 C         143.7284  142.7248  159.9559 C.2     1  UNL1        0.0943
     31 C         143.7182  141.2863  160.3809 C.2     1  UNL1       -0.0052
     32 C         143.7541  141.2457  161.8800 C.2     1  UNL1       -0.0019
     33 C         143.7615  140.1042  162.8532 C.3     1  UNL1        0.0643
     34 N         143.8160  138.0933  166.2742 N.1     1  UNL1       -0.1911
     35 C         143.8086  139.2347  165.3010 C.1     1  UNL1        0.0964
@<TRIPOS>BOND
     1    34    35    3
     2    35    25    1
     3    25    26    2
     4    26    27    1
     5    27    28    2
     6    28    29    1
     7    29    30    2
     8    30    31    1
     9    31    24    1
    10    24    23    1
    11    23    22    1
    12    22    21    1
    13    21     1    1
    14     1     2    1
    15     2     3    1
    16     3     4    1
    17     4     7    1
    18     7     8   ar
    19     8     9   ar
    20     9    10   ar
    21    10    11   ar
    22    11    12   ar
    23    12    16    1
    24    16    17   am
    25    16    18    2
    26    12    13   ar
    27    13    14   ar
    28    14    15   ar
    29     4     5    1
    30     5     6    1
    31    31    32    2
    32    32    33    1
    33    33    25    1
    34    32    28    1
    35     6     1    1
    36    15     7   ar
    37    14    10   ar
    38    17    19    1
    39    17    20    1
