@<TRIPOS>MOLECULE
*****
 38 42 0 0 0
SMALL
GASTEIGER

@<TRIPOS>ATOM
      1 C         142.1610  142.7660  161.5611 C.ar    1  UNL1       -0.0006
      2 C         141.1578  141.7189  161.9451 C.ar    1  UNL1       -0.0003
      3 C         141.3913  140.8649  163.1559 C.ar    1  UNL1       -0.0044
      4 C         142.6279  141.0579  163.9827 C.ar    1  UNL1       -0.0214
      5 C         143.6310  142.1049  163.5988 C.ar    1  UNL1       -0.0256
      6 C         144.8675  142.2980  164.4256 C.3     1  UNL1        0.0307
      7 C         143.3975  142.9590  162.3879 C.ar    1  UNL1       -0.0046
      8 C         142.8613  140.2038  165.1936 C.3     1  UNL1        0.0785
      9 C         143.6725  138.9472  165.0799 C.3     1  UNL1        0.0768
     10 N         143.9060  138.0931  166.2907 N.3     1  UNL1       -0.2970
     11 C         143.3283  138.4957  167.6152 C.3     1  UNL1        0.0725
     12 C         142.5171  139.7523  167.7288 C.3     1  UNL1        0.0619
     13 C         142.2837  140.6064  166.5180 C.3     1  UNL1        0.1613
     14 O         141.9677  141.5559  165.4007 O.3     1  UNL1       -0.4481
     15 C         141.1348  142.6705  165.9611 C.2     1  UNL1        0.3412
     16 O         140.5954  143.8404  165.1926 O.2     1  UNL1       -0.2449
     17 C         140.9360  142.4098  167.4248 C.ar    1  UNL1        0.0773
     18 C         140.2003  143.1693  168.4887 C.ar    1  UNL1        0.0382
     19 C         140.1745  142.6530  169.8968 C.ar    1  UNL1        0.1676
     20 F         139.4388  143.4124  170.9607 F       1  UNL1       -0.2018
     21 C         140.8846  141.3773  170.2410 C.ar    1  UNL1        0.1672
     22 F         140.8588  140.8611  171.6492 F       1  UNL1       -0.2018
     23 C         141.6204  140.6179  169.1771 C.ar    1  UNL1        0.0312
     24 C         141.6461  141.1341  167.7690 C.ar    1  UNL1        0.0226
     25 H         144.9162  138.0309  166.4168 H       1  UNL1        0.1233
     26 C         141.2324  144.9421  160.4877 C.ar    1  UNL1       -0.0205
     27 C         140.9990  145.7961  159.2769 C.ar    1  UNL1       -0.0042
     28 C         141.4605  145.3280  157.9285 C.ar    1  UNL1       -0.0003
     29 C         142.1555  144.0059  157.7911 C.ar    1  UNL1       -0.0000
     30 C         142.3890  143.1518  159.0020 C.ar    1  UNL1       -0.0003
     31 C         141.9275  143.6200  160.3502 C.ar    1  UNL1       -0.0039
     32 C         140.7709  145.4103  161.8359 C.3     1  UNL1        0.0476
     33 C         139.3050  145.4676  162.1486 C.3     1  UNL1        0.0941
     34 C         137.4068  142.1498  163.2157 C.3     1  UNL1        0.0946
     35 C         138.0336  143.2119  162.3620 C.2     1  UNL1        0.2230
     36 O         138.0159  143.0806  160.8678 O.2     1  UNL1       -0.2751
     37 N         138.6781  144.4054  163.0024 N.am    1  UNL1       -0.3040
     38 H         138.6897  144.4916  163.9830 H       1  UNL1        0.1494
@<TRIPOS>BOND
     1    34    35    1
     2    35    36    2
     3    35    37   am
     4    37    33    1
     5    33    32    1
     6    32    26    1
     7    26    27   ar
     8    27    28   ar
     9    28    29   ar
    10    29    30   ar
    11    30    31   ar
    12    31     1    1
    13     1     2   ar
    14     2     3   ar
    15     3     4   ar
    16     8     4    1
    17     8     9    1
    18     9    10    1
    19    10    11    1
    20    11    12    1
    21    13    12    1
    22    13    14    1
    23    14    15    1
    24    15    16    2
    25    15    17    1
    26    17    18   ar
    27    18    19   ar
    28    19    20    1
    29    19    21   ar
    30    21    22    1
    31    21    23   ar
    32    23    24   ar
    33     4     5   ar
    34     5     6    1
    35     5     7   ar
    36    31    26   ar
    37     7     1   ar
    38    13     8    1
    39    24    17   ar
    40    24    13    1
    41    37    38    1
    42    10    25    1
@<TRIPOS>MOLECULE
*****
 38 42 0 0 0
SMALL
GASTEIGER

@<TRIPOS>ATOM
      1 C         140.5152  142.5403  159.5173 C.ar    1  UNL1       -0.0006
      2 C         141.8585  141.8985  159.7012 C.ar    1  UNL1       -0.0003
      3 C         142.0354  140.8058  160.7135 C.ar    1  UNL1       -0.0044
      4 C         140.8691  140.3550  161.5420 C.ar    1  UNL1       -0.0214
      5 C         139.5259  140.9968  161.3582 C.ar    1  UNL1       -0.0256
      6 C         138.3596  140.5460  162.1868 C.3     1  UNL1        0.0307
      7 C         139.3489  142.0895  160.3459 C.ar    1  UNL1       -0.0046
      8 C         141.0461  139.2623  162.5544 C.3     1  UNL1        0.0785
      9 C         140.7801  137.8363  162.1729 C.3     1  UNL1        0.0768
     10 N         140.9571  136.7436  163.1852 N.3     1  UNL1       -0.2970
     11 C         141.4000  137.0771  164.5790 C.3     1  UNL1        0.0725
     12 C         141.6659  138.5032  164.9604 C.3     1  UNL1        0.0619
     13 C         141.4890  139.5958  163.9482 C.3     1  UNL1        0.1613
     14 O         141.3558  140.7887  163.0486 O.3     1  UNL1       -0.4481
     15 C         141.7193  142.0095  163.8406 C.2     1  UNL1        0.3412
     16 O         141.7241  143.4209  163.3327 O.2     1  UNL1       -0.2449
     17 C         142.0772  141.5712  165.2298 C.ar    1  UNL1        0.0773
     18 C         142.5143  142.3377  166.4428 C.ar    1  UNL1        0.0382
     19 C         142.8091  141.6124  167.7223 C.ar    1  UNL1        0.1676
     20 F         143.2462  142.3789  168.9353 F       1  UNL1       -0.2018
     21 C         142.6667  140.1206  167.7887 C.ar    1  UNL1        0.1672
     22 F         142.9615  139.3954  169.0683 F       1  UNL1       -0.2018
     23 C         142.2296  139.3542  166.5757 C.ar    1  UNL1        0.0312
     24 C         141.9348  140.0794  165.2962 C.ar    1  UNL1        0.0226
     25 H         141.6478  136.0975  162.8034 H       1  UNL1        0.1233
     26 C         140.5047  145.0669  158.9123 C.ar    1  UNL1       -0.0205
     27 C         140.3278  146.1595  157.9000 C.ar    1  UNL1       -0.0042
     28 C         139.9845  145.8181  156.4802 C.ar    1  UNL1       -0.0003
     29 C         139.8181  144.3841  156.0729 C.ar    1  UNL1       -0.0000
     30 C         139.9950  143.2915  157.0853 C.ar    1  UNL1       -0.0003
     31 C         140.3383  143.6329  158.5050 C.ar    1  UNL1       -0.0039
     32 C         140.8481  145.4083  160.3320 C.3     1  UNL1        0.0476
     33 C         139.8067  146.0024  161.2334 C.3     1  UNL1        0.0941
     34 C         138.8712  144.6973  164.8627 C.3     1  UNL1        0.0946
     35 C         138.8089  144.9388  163.3836 C.2     1  UNL1        0.2230
     36 O         137.6866  144.3580  162.5754 O.2     1  UNL1       -0.2751
     37 N         139.8690  145.7610  162.7126 N.am    1  UNL1       -0.3040
     38 H         140.6056  146.1422  163.2430 H       1  UNL1        0.1494
@<TRIPOS>BOND
     1    34    35    1
     2    35    36    2
     3    35    37   am
     4    37    33    1
     5    33    32    1
     6    32    26    1
     7    26    27   ar
     8    27    28   ar
     9    28    29   ar
    10    29    30   ar
    11    30    31   ar
    12    31     1    1
    13     1     2   ar
    14     2     3   ar
    15     3     4   ar
    16     8     4    1
    17     8     9    1
    18     9    10    1
    19    10    11    1
    20    11    12    1
    21    13    12    1
    22    13    14    1
    23    14    15    1
    24    15    16    2
    25    15    17    1
    26    17    18   ar
    27    18    19   ar
    28    19    20    1
    29    19    21   ar
    30    21    22    1
    31    21    23   ar
    32    23    24   ar
    33     4     5   ar
    34     5     6    1
    35     5     7   ar
    36    31    26   ar
    37     7     1   ar
    38    13     8    1
    39    24    17   ar
    40    24    13    1
    41    37    38    1
    42    10    25    1
@<TRIPOS>MOLECULE
*****
 38 42 0 0 0
SMALL
GASTEIGER

@<TRIPOS>ATOM
      1 C         141.5047  139.7180  161.5719 C.ar    1  UNL1       -0.0006
      2 C         140.6382  140.8398  162.0629 C.ar    1  UNL1       -0.0003
      3 C         140.0111  140.7628  163.4233 C.ar    1  UNL1       -0.0044
      4 C         140.2503  139.5641  164.2927 C.ar    1  UNL1       -0.0214
      5 C         141.1167  138.4424  163.8018 C.ar    1  UNL1       -0.0256
      6 C         141.3560  137.2438  164.6712 C.3     1  UNL1        0.0307
      7 C         141.7439  138.5194  162.4413 C.ar    1  UNL1       -0.0046
      8 C         139.6231  139.4872  165.6532 C.3     1  UNL1        0.0785
      9 C         138.3338  138.7446  165.8437 C.3     1  UNL1        0.0768
     10 N         137.7066  138.6676  167.2041 N.3     1  UNL1       -0.2970
     11 C         138.3687  139.3333  168.3739 C.3     1  UNL1        0.0725
     12 C         139.6579  140.0759  168.1833 C.3     1  UNL1        0.0619
     13 C         140.2852  140.1529  166.8230 C.3     1  UNL1        0.1613
     14 O         141.0267  140.3144  165.5292 O.3     1  UNL1       -0.4481
     15 C         142.2591  141.1257  165.7993 C.2     1  UNL1        0.3412
     16 O         143.2903  141.5267  164.7865 O.2     1  UNL1       -0.2449
     17 C         142.2792  141.4656  167.2602 C.ar    1  UNL1        0.0773
     18 C         143.2508  142.2449  168.0961 C.ar    1  UNL1        0.0382
     19 C         143.0024  142.4230  169.5646 C.ar    1  UNL1        0.1676
     20 F         143.9739  143.2023  170.4005 F       1  UNL1       -0.2018
     21 C         141.7824  141.8217  170.1972 C.ar    1  UNL1        0.1672
     22 F         141.5341  141.9999  171.6658 F       1  UNL1       -0.2018
     23 C         140.8108  141.0424  169.3613 C.ar    1  UNL1        0.0312
     24 C         141.0593  140.8644  167.8928 C.ar    1  UNL1        0.0226
     25 H         137.6260  137.6775  167.4355 H       1  UNL1        0.1233
     26 C         143.4851  140.4201  160.0437 C.ar    1  UNL1       -0.0205
     27 C         144.1122  140.4970  158.6833 C.ar    1  UNL1       -0.0042
     28 C         143.3862  139.9489  157.4906 C.ar    1  UNL1       -0.0003
     29 C         142.0330  139.3239  157.6584 C.ar    1  UNL1       -0.0000
     30 C         141.4058  139.2469  159.0188 C.ar    1  UNL1       -0.0003
     31 C         142.1318  139.7950  160.2115 C.ar    1  UNL1       -0.0039
     32 C         144.2111  140.9682  161.2363 C.3     1  UNL1        0.0476
     33 C         144.7818  142.3547  161.1950 C.3     1  UNL1        0.0941
     34 C         143.7570  145.1153  163.8557 C.3     1  UNL1        0.0946
     35 C         143.7512  144.2694  162.6170 C.2     1  UNL1        0.2230
     36 O         142.7090  144.4924  161.5614 O.2     1  UNL1       -0.2751
     37 N         144.7876  143.2006  162.4338 N.am    1  UNL1       -0.3040
     38 H         145.4716  143.0543  163.1266 H       1  UNL1        0.1494
@<TRIPOS>BOND
     1    34    35    1
     2    35    36    2
     3    35    37   am
     4    37    33    1
     5    33    32    1
     6    32    26    1
     7    26    27   ar
     8    27    28   ar
     9    28    29   ar
    10    29    30   ar
    11    30    31   ar
    12    31     1    1
    13     1     2   ar
    14     2     3   ar
    15     3     4   ar
    16     8     4    1
    17     8     9    1
    18     9    10    1
    19    10    11    1
    20    11    12    1
    21    13    12    1
    22    13    14    1
    23    14    15    1
    24    15    16    2
    25    15    17    1
    26    17    18   ar
    27    18    19   ar
    28    19    20    1
    29    19    21   ar
    30    21    22    1
    31    21    23   ar
    32    23    24   ar
    33     4     5   ar
    34     5     6    1
    35     5     7   ar
    36    31    26   ar
    37     7     1   ar
    38    13     8    1
    39    24    17   ar
    40    24    13    1
    41    37    38    1
    42    10    25    1
@<TRIPOS>MOLECULE
*****
 38 42 0 0 0
SMALL
GASTEIGER

@<TRIPOS>ATOM
      1 C         141.7671  142.1032  166.7811 C.ar    1  UNL1       -0.0006
      2 C         140.3368  142.3832  166.4263 C.ar    1  UNL1       -0.0003
      3 C         140.0033  143.0462  165.1228 C.ar    1  UNL1       -0.0044
      4 C         141.1001  143.4293  164.1740 C.ar    1  UNL1       -0.0214
      5 C         142.5304  143.1493  164.5287 C.ar    1  UNL1       -0.0256
      6 C         143.6272  143.5324  163.5799 C.3     1  UNL1        0.0307
      7 C         142.8639  142.4863  165.8322 C.ar    1  UNL1       -0.0046
      8 C         140.7665  144.0924  162.8705 C.3     1  UNL1        0.0785
      9 C         140.7853  145.5884  162.7636 C.3     1  UNL1        0.0768
     10 N         140.4518  146.2515  161.4602 N.3     1  UNL1       -0.2970
     11 C         140.0995  145.4185  160.2635 C.3     1  UNL1        0.0725
     12 C         140.0807  143.9224  160.3704 C.3     1  UNL1        0.0619
     13 C         140.4142  143.2593  161.6738 C.3     1  UNL1        0.1613
     14 O         140.7235  142.4593  162.9044 O.3     1  UNL1       -0.4481
     15 C         140.5833  141.0062  162.5600 C.2     1  UNL1        0.3412
     16 O         140.8008  139.8535  163.4949 O.2     1  UNL1       -0.2449
     17 C         140.1873  140.9080  161.1165 C.ar    1  UNL1        0.0773
     18 C         139.9084  139.7306  160.2301 C.ar    1  UNL1        0.0382
     19 C         139.5250  139.9457  158.7960 C.ar    1  UNL1        0.1676
     20 F         139.2460  138.7683  157.9095 F       1  UNL1       -0.2018
     21 C         139.4205  141.3383  158.2483 C.ar    1  UNL1        0.1672
     22 F         139.0370  141.5533  156.8141 F       1  UNL1       -0.2018
     23 C         139.6994  142.5157  159.1348 C.ar    1  UNL1        0.0312
     24 C         140.0828  142.3006  160.5689 C.ar    1  UNL1        0.0226
     25 H         141.2624  146.8131  161.1996 H       1  UNL1        0.1233
     26 C         142.3113  139.9560  168.1388 C.ar    1  UNL1       -0.0205
     27 C         142.6448  139.2930  169.4423 C.ar    1  UNL1       -0.0042
     28 C         142.7676  140.1141  170.6916 C.ar    1  UNL1       -0.0003
     29 C         142.5569  141.5982  170.6374 C.ar    1  UNL1       -0.0000
     30 C         142.2234  142.2613  169.3338 C.ar    1  UNL1       -0.0003
     31 C         142.1006  141.4402  168.0846 C.ar    1  UNL1       -0.0039
     32 C         142.1886  139.1349  166.8895 C.3     1  UNL1        0.0476
     33 C         143.4071  138.8303  166.0695 C.3     1  UNL1        0.0941
     34 C         144.1577  139.4957  162.2297 C.3     1  UNL1        0.0946
     35 C         144.2568  139.5594  163.7250 C.2     1  UNL1        0.2230
     36 O         145.3048  140.4162  164.3714 O.2     1  UNL1       -0.2751
     37 N         143.3079  138.7665  164.5741 N.am    1  UNL1       -0.3040
     38 H         142.6201  138.2042  164.1499 H       1  UNL1        0.1494
@<TRIPOS>BOND
     1    34    35    1
     2    35    36    2
     3    35    37   am
     4    37    33    1
     5    33    32    1
     6    32    26    1
     7    26    27   ar
     8    27    28   ar
     9    28    29   ar
    10    29    30   ar
    11    30    31   ar
    12    31     1    1
    13     1     2   ar
    14     2     3   ar
    15     3     4   ar
    16     8     4    1
    17     8     9    1
    18     9    10    1
    19    10    11    1
    20    11    12    1
    21    13    12    1
    22    13    14    1
    23    14    15    1
    24    15    16    2
    25    15    17    1
    26    17    18   ar
    27    18    19   ar
    28    19    20    1
    29    19    21   ar
    30    21    22    1
    31    21    23   ar
    32    23    24   ar
    33     4     5   ar
    34     5     6    1
    35     5     7   ar
    36    31    26   ar
    37     7     1   ar
    38    13     8    1
    39    24    17   ar
    40    24    13    1
    41    37    38    1
    42    10    25    1
@<TRIPOS>MOLECULE
*****
 38 42 0 0 0
SMALL
GASTEIGER

@<TRIPOS>ATOM
      1 C         140.7524  142.5565  166.2747 C.ar    1  UNL1       -0.0006
      2 C         142.1649  142.6386  165.7765 C.ar    1  UNL1       -0.0003
      3 C         142.4348  142.9551  164.3354 C.ar    1  UNL1       -0.0044
      4 C         141.2921  143.1895  163.3923 C.ar    1  UNL1       -0.0214
      5 C         139.8797  143.1074  163.8903 C.ar    1  UNL1       -0.0256
      6 C         138.7370  143.3418  162.9472 C.3     1  UNL1        0.0307
      7 C         139.6097  142.7909  165.3316 C.ar    1  UNL1       -0.0046
      8 C         141.5621  143.5059  161.9510 C.3     1  UNL1        0.0785
      9 C         141.5174  144.9274  161.4742 C.3     1  UNL1        0.0768
     10 N         141.7873  145.2439  160.0331 N.3     1  UNL1       -0.2970
     11 C         142.1019  144.1389  159.0688 C.3     1  UNL1        0.0725
     12 C         142.1465  142.7174  159.5456 C.3     1  UNL1        0.0619
     13 C         141.8766  142.4009  160.9867 C.3     1  UNL1        0.1613
     14 O         141.6299  141.9337  162.3906 O.3     1  UNL1       -0.4481
     15 C         141.7766  140.4411  162.4149 C.2     1  UNL1        0.3412
     16 O         141.6144  139.5587  163.6170 O.2     1  UNL1       -0.2449
     17 C         142.1141  139.9858  161.0260 C.ar    1  UNL1        0.0773
     18 C         142.3731  138.6248  160.4511 C.ar    1  UNL1        0.0382
     19 C         142.6938  138.4751  158.9934 C.ar    1  UNL1        0.1676
     20 F         142.9528  137.1141  158.4184 F       1  UNL1       -0.2018
     21 C         142.7556  139.6864  158.1108 C.ar    1  UNL1        0.1672
     22 F         143.0764  139.5365  156.6531 F       1  UNL1       -0.2018
     23 C         142.4966  141.0474  158.6858 C.ar    1  UNL1        0.0312
     24 C         142.1759  141.1971  160.1434 C.ar    1  UNL1        0.0226
     25 H         142.5809  145.8845  160.0159 H       1  UNL1        0.1233
     26 C         140.2739  140.8180  168.1451 C.ar    1  UNL1       -0.0205
     27 C         140.0040  140.5016  169.5863 C.ar    1  UNL1       -0.0042
     28 C         139.9428  141.6072  170.5982 C.ar    1  UNL1       -0.0003
     29 C         140.1514  143.0292  170.1689 C.ar    1  UNL1       -0.0000
     30 C         140.4213  143.3456  168.7277 C.ar    1  UNL1       -0.0003
     31 C         140.4825  142.2401  167.7158 C.ar    1  UNL1       -0.0039
     32 C         140.3351  139.7125  167.1333 C.3     1  UNL1        0.0476
     33 C         139.0905  139.2845  166.4137 C.3     1  UNL1        0.0941
     34 C         138.6645  137.8458  162.7397 C.3     1  UNL1        0.0946
     35 C         138.5691  138.7634  163.9224 C.2     1  UNL1        0.2230
     36 O         137.8570  140.0776  163.7966 O.2     1  UNL1       -0.2751
     37 N         139.1859  138.3669  165.2310 N.am    1  UNL1       -0.3040
     38 H         139.6533  137.5043  165.3136 H       1  UNL1        0.1494
@<TRIPOS>BOND
     1    34    35    1
     2    35    36    2
     3    35    37   am
     4    37    33    1
     5    33    32    1
     6    32    26    1
     7    26    27   ar
     8    27    28   ar
     9    28    29   ar
    10    29    30   ar
    11    30    31   ar
    12    31     1    1
    13     1     2   ar
    14     2     3   ar
    15     3     4   ar
    16     8     4    1
    17     8     9    1
    18     9    10    1
    19    10    11    1
    20    11    12    1
    21    13    12    1
    22    13    14    1
    23    14    15    1
    24    15    16    2
    25    15    17    1
    26    17    18   ar
    27    18    19   ar
    28    19    20    1
    29    19    21   ar
    30    21    22    1
    31    21    23   ar
    32    23    24   ar
    33     4     5   ar
    34     5     6    1
    35     5     7   ar
    36    31    26   ar
    37     7     1   ar
    38    13     8    1
    39    24    17   ar
    40    24    13    1
    41    37    38    1
    42    10    25    1
@<TRIPOS>MOLECULE
*****
 38 42 0 0 0
SMALL
GASTEIGER

@<TRIPOS>ATOM
      1 C         140.2469  138.7606  162.1539 C.ar    1  UNL1       -0.0006
      2 C         140.6539  137.7169  163.1514 C.ar    1  UNL1       -0.0003
      3 C         140.2501  137.8559  164.5893 C.ar    1  UNL1       -0.0044
      4 C         139.4394  139.0386  165.0298 C.ar    1  UNL1       -0.0214
      5 C         139.0324  140.0823  164.0323 C.ar    1  UNL1       -0.0256
      6 C         138.2217  141.2650  164.4727 C.3     1  UNL1        0.0307
      7 C         139.4362  139.9433  162.5943 C.ar    1  UNL1       -0.0046
      8 C         139.0356  139.1776  166.4677 C.3     1  UNL1        0.0785
      9 C         137.7429  138.5845  166.9444 C.3     1  UNL1        0.0768
     10 N         137.3392  138.7234  168.3823 N.3     1  UNL1       -0.2970
     11 C         138.2281  139.4554  169.3436 C.3     1  UNL1        0.0725
     12 C         139.5208  140.0485  168.8669 C.3     1  UNL1        0.0619
     13 C         139.9245  139.9095  167.4290 C.3     1  UNL1        0.1613
     14 O         140.4578  139.8513  166.0282 O.3     1  UNL1       -0.4481
     15 C         141.7738  140.5708  166.0028 C.2     1  UNL1        0.3412
     16 O         142.6549  140.7550  164.8030 O.2     1  UNL1       -0.2449
     17 C         142.0539  141.0736  167.3880 C.ar    1  UNL1        0.0773
     18 C         143.2019  141.8508  167.9606 C.ar    1  UNL1        0.0382
     19 C         143.2071  142.2193  169.4146 C.ar    1  UNL1        0.1676
     20 F         144.3552  142.9965  169.9873 F       1  UNL1       -0.2018
     21 C         142.0642  141.8106  170.2960 C.ar    1  UNL1        0.1672
     22 F         142.0695  142.1792  171.7501 F       1  UNL1       -0.2018
     23 C         140.9162  141.0334  169.7234 C.ar    1  UNL1        0.0312
     24 C         140.9110  140.6649  168.2694 C.ar    1  UNL1        0.0226
     25 H         137.2244  137.7784  168.7486 H       1  UNL1        0.1233
     26 C         142.1000  138.6853  160.3344 C.ar    1  UNL1       -0.0205
     27 C         142.5037  138.5464  158.8965 C.ar    1  UNL1       -0.0042
     28 C         141.4582  138.3436  157.8401 C.ar    1  UNL1       -0.0003
     29 C         140.0090  138.2799  158.2217 C.ar    1  UNL1       -0.0000
     30 C         139.6052  138.4190  159.6597 C.ar    1  UNL1       -0.0003
     31 C         140.6507  138.6216  160.7160 C.ar    1  UNL1       -0.0039
     32 C         143.1454  138.8880  161.3907 C.3     1  UNL1        0.0476
     33 C         144.1181  140.0240  161.2750 C.3     1  UNL1        0.0941
     34 C         144.2813  143.6265  162.9320 C.3     1  UNL1        0.0946
     35 C         144.6810  142.2493  162.4922 C.2     1  UNL1        0.2230
     36 O         146.0433  141.7199  162.8300 O.2     1  UNL1       -0.2751
     37 N         143.7184  141.4014  161.7147 N.am    1  UNL1       -0.3040
     38 H         142.8243  141.7488  161.4931 H       1  UNL1        0.1494
@<TRIPOS>BOND
     1    34    35    1
     2    35    36    2
     3    35    37   am
     4    37    33    1
     5    33    32    1
     6    32    26    1
     7    26    27   ar
     8    27    28   ar
     9    28    29   ar
    10    29    30   ar
    11    30    31   ar
    12    31     1    1
    13     1     2   ar
    14     2     3   ar
    15     3     4   ar
    16     8     4    1
    17     8     9    1
    18     9    10    1
    19    10    11    1
    20    11    12    1
    21    13    12    1
    22    13    14    1
    23    14    15    1
    24    15    16    2
    25    15    17    1
    26    17    18   ar
    27    18    19   ar
    28    19    20    1
    29    19    21   ar
    30    21    22    1
    31    21    23   ar
    32    23    24   ar
    33     4     5   ar
    34     5     6    1
    35     5     7   ar
    36    31    26   ar
    37     7     1   ar
    38    13     8    1
    39    24    17   ar
    40    24    13    1
    41    37    38    1
    42    10    25    1
@<TRIPOS>MOLECULE
*****
 38 42 0 0 0
SMALL
GASTEIGER

@<TRIPOS>ATOM
      1 C         140.7512  141.9799  161.0699 C.ar    1  UNL1       -0.0006
      2 C         139.9180  142.8314  161.9814 C.ar    1  UNL1       -0.0003
      3 C         139.4759  142.2966  163.3113 C.ar    1  UNL1       -0.0044
      4 C         139.8671  140.9103  163.7297 C.ar    1  UNL1       -0.0214
      5 C         140.7003  140.0588  162.8183 C.ar    1  UNL1       -0.0256
      6 C         141.0914  138.6724  163.2368 C.3     1  UNL1        0.0307
      7 C         141.1423  140.5936  161.4884 C.ar    1  UNL1       -0.0046
      8 C         139.4250  140.3755  165.0596 C.3     1  UNL1        0.0785
      9 C         138.1801  139.5445  165.1575 C.3     1  UNL1        0.0768
     10 N         137.7380  139.0097  166.4874 N.3     1  UNL1       -0.2970
     11 C         138.5408  139.3059  167.7193 C.3     1  UNL1        0.0725
     12 C         139.7857  140.1369  167.6214 C.3     1  UNL1        0.0619
     13 C         140.2278  140.6717  166.2916 C.3     1  UNL1        0.1613
     14 O         140.7911  141.2716  165.0374 O.3     1  UNL1       -0.4481
     15 C         142.0395  142.0193  165.4014 C.2     1  UNL1        0.3412
     16 O         142.9242  142.7726  164.4527 O.2     1  UNL1       -0.2449
     17 C         142.2478  141.8816  166.8804 C.ar    1  UNL1        0.0773
     18 C         143.3123  142.4069  167.7974 C.ar    1  UNL1        0.0382
     19 C         143.2571  142.0994  169.2644 C.ar    1  UNL1        0.1676
     20 F         144.3216  142.6248  170.1814 F       1  UNL1       -0.2018
     21 C         142.1375  141.2665  169.8146 C.ar    1  UNL1        0.1672
     22 F         142.0824  140.9590  171.2818 F       1  UNL1       -0.2018
     23 C         141.0730  140.7411  168.8977 C.ar    1  UNL1        0.0312
     24 C         141.1281  141.0487  167.4306 C.ar    1  UNL1        0.0226
     25 H         137.6992  137.9943  166.3983 H       1  UNL1        0.1233
     26 C         142.5390  143.1627  159.6021 C.ar    1  UNL1       -0.0205
     27 C         142.9810  143.6975  158.2722 C.ar    1  UNL1       -0.0042
     28 C         142.0773  143.5844  157.0803 C.ar    1  UNL1       -0.0003
     29 C         140.7315  142.9364  157.2184 C.ar    1  UNL1       -0.0000
     30 C         140.2895  142.4016  158.5483 C.ar    1  UNL1       -0.0003
     31 C         141.1932  142.5147  159.7401 C.ar    1  UNL1       -0.0039
     32 C         143.4427  143.2759  160.7939 C.3     1  UNL1        0.0476
     33 C         144.5109  142.2486  161.0253 C.3     1  UNL1        0.0941
     34 C         144.9013  139.7321  164.0692 C.3     1  UNL1        0.0946
     35 C         144.6511  140.2553  162.6859 C.2     1  UNL1        0.2230
     36 O         144.2909  139.3084  161.5796 O.2     1  UNL1       -0.2751
     37 N         144.7611  141.7253  162.4087 N.am    1  UNL1       -0.3040
     38 H         144.9975  142.3468  163.1348 H       1  UNL1        0.1494
@<TRIPOS>BOND
     1    34    35    1
     2    35    36    2
     3    35    37   am
     4    37    33    1
     5    33    32    1
     6    32    26    1
     7    26    27   ar
     8    27    28   ar
     9    28    29   ar
    10    29    30   ar
    11    30    31   ar
    12    31     1    1
    13     1     2   ar
    14     2     3   ar
    15     3     4   ar
    16     8     4    1
    17     8     9    1
    18     9    10    1
    19    10    11    1
    20    11    12    1
    21    13    12    1
    22    13    14    1
    23    14    15    1
    24    15    16    2
    25    15    17    1
    26    17    18   ar
    27    18    19   ar
    28    19    20    1
    29    19    21   ar
    30    21    22    1
    31    21    23   ar
    32    23    24   ar
    33     4     5   ar
    34     5     6    1
    35     5     7   ar
    36    31    26   ar
    37     7     1   ar
    38    13     8    1
    39    24    17   ar
    40    24    13    1
    41    37    38    1
    42    10    25    1
@<TRIPOS>MOLECULE
*****
 38 42 0 0 0
SMALL
GASTEIGER

@<TRIPOS>ATOM
      1 C         142.1203  141.0163  166.7377 C.ar    1  UNL1       -0.0006
      2 C         142.2295  142.4445  166.2920 C.ar    1  UNL1       -0.0003
      3 C         142.7242  142.7638  164.9124 C.ar    1  UNL1       -0.0044
      4 C         143.1097  141.6551  163.9785 C.ar    1  UNL1       -0.0214
      5 C         143.0004  140.2271  164.4242 C.ar    1  UNL1       -0.0256
      6 C         143.3858  139.1183  163.4902 C.3     1  UNL1        0.0307
      7 C         142.5057  139.9076  165.8038 C.ar    1  UNL1       -0.0046
      8 C         143.6044  141.9745  162.5989 C.3     1  UNL1        0.0785
      9 C         145.0770  142.0911  162.3385 C.3     1  UNL1        0.0768
     10 N         145.5718  142.4105  160.9590 N.3     1  UNL1       -0.2970
     11 C         144.5939  142.6133  159.8398 C.3     1  UNL1        0.0725
     12 C         143.1213  142.4967  160.1002 C.3     1  UNL1        0.0619
     13 C         142.6265  142.1773  161.4797 C.3     1  UNL1        0.1613
     14 O         141.9866  141.8649  162.7999 O.3     1  UNL1       -0.4481
     15 C         140.4998  141.8471  162.6017 C.2     1  UNL1        0.3412
     16 O         139.4724  141.5756  163.6604 O.2     1  UNL1       -0.2449
     17 C         140.2209  142.1486  161.1591 C.ar    1  UNL1        0.0773
     18 C         138.9399  142.2637  160.3872 C.ar    1  UNL1        0.0382
     19 C         138.9732  142.5829  158.9220 C.ar    1  UNL1        0.1676
     20 F         137.6922  142.6979  158.1501 F       1  UNL1       -0.2018
     21 C         140.2876  142.7869  158.2285 C.ar    1  UNL1        0.1672
     22 F         140.3208  143.1061  156.7632 F       1  UNL1       -0.2018
     23 C         141.5686  142.6718  159.0004 C.ar    1  UNL1        0.0312
     24 C         141.5352  142.3527  160.4656 C.ar    1  UNL1        0.0226
     25 H         146.1831  141.6431  160.6804 H       1  UNL1        0.1233
     26 C         140.1815  140.3550  168.3357 C.ar    1  UNL1       -0.0205
     27 C         139.6868  140.0356  169.7153 C.ar    1  UNL1       -0.0042
     28 C         140.6362  140.0583  170.8765 C.ar    1  UNL1       -0.0003
     29 C         142.0802  140.4003  170.6580 C.ar    1  UNL1       -0.0000
     30 C         142.5749  140.7196  169.2783 C.ar    1  UNL1       -0.0003
     31 C         141.6256  140.6970  168.1173 C.ar    1  UNL1       -0.0039
     32 C         139.2321  140.3323  167.1747 C.3     1  UNL1        0.0476
     33 C         138.8939  139.0321  166.5077 C.3     1  UNL1        0.0941
     34 C         139.3047  138.0106  162.6948 C.3     1  UNL1        0.0946
     35 C         139.5135  138.0599  164.1794 C.2     1  UNL1        0.2230
     36 O         140.5510  137.1864  164.8203 O.2     1  UNL1       -0.2751
     37 N         138.6850  138.9828  165.0231 N.am    1  UNL1       -0.3040
     38 H         138.0041  139.5561  164.6025 H       1  UNL1        0.1494
@<TRIPOS>BOND
     1    34    35    1
     2    35    36    2
     3    35    37   am
     4    37    33    1
     5    33    32    1
     6    32    26    1
     7    26    27   ar
     8    27    28   ar
     9    28    29   ar
    10    29    30   ar
    11    30    31   ar
    12    31     1    1
    13     1     2   ar
    14     2     3   ar
    15     3     4   ar
    16     8     4    1
    17     8     9    1
    18     9    10    1
    19    10    11    1
    20    11    12    1
    21    13    12    1
    22    13    14    1
    23    14    15    1
    24    15    16    2
    25    15    17    1
    26    17    18   ar
    27    18    19   ar
    28    19    20    1
    29    19    21   ar
    30    21    22    1
    31    21    23   ar
    32    23    24   ar
    33     4     5   ar
    34     5     6    1
    35     5     7   ar
    36    31    26   ar
    37     7     1   ar
    38    13     8    1
    39    24    17   ar
    40    24    13    1
    41    37    38    1
    42    10    25    1
@<TRIPOS>MOLECULE
*****
 38 42 0 0 0
SMALL
GASTEIGER

@<TRIPOS>ATOM
      1 C         139.5317  142.4924  159.5735 C.ar    1  UNL1       -0.0006
      2 C         138.2524  142.4064  160.3521 C.ar    1  UNL1       -0.0003
      3 C         138.1281  141.4315  161.4852 C.ar    1  UNL1       -0.0044
      4 C         139.2831  140.5425  161.8398 C.ar    1  UNL1       -0.0214
      5 C         140.5624  140.6285  161.0613 C.ar    1  UNL1       -0.0256
      6 C         141.7174  139.7396  161.4160 C.3     1  UNL1        0.0307
      7 C         140.6867  141.6035  159.9281 C.ar    1  UNL1       -0.0046
      8 C         139.1589  139.5675  162.9730 C.3     1  UNL1        0.0785
      9 C         138.7834  138.1416  162.6978 C.3     1  UNL1        0.0768
     10 N         138.6591  137.1667  163.8308 N.3     1  UNL1       -0.2970
     11 C         138.9102  137.6176  165.2392 C.3     1  UNL1        0.0725
     12 C         139.2857  139.0435  165.5144 C.3     1  UNL1        0.0619
     13 C         139.4100  140.0185  164.3814 C.3     1  UNL1        0.1613
     14 O         139.5715  141.1014  163.3561 O.3     1  UNL1       -0.4481
     15 C         139.9512  142.3641  164.0713 C.2     1  UNL1        0.3412
     16 O         140.2119  143.6955  163.4314 O.2     1  UNL1       -0.2449
     17 C         140.0245  142.0615  165.5386 C.ar    1  UNL1        0.0773
     18 C         140.3526  142.9187  166.7250 C.ar    1  UNL1        0.0382
     19 C         140.3461  142.3263  168.1030 C.ar    1  UNL1        0.1676
     20 F         140.6742  143.1835  169.2894 F       1  UNL1       -0.2018
     21 C         140.0117  140.8767  168.2946 C.ar    1  UNL1        0.1672
     22 F         140.0053  140.2843  169.6728 F       1  UNL1       -0.2018
     23 C         139.6836  140.0195  167.1083 C.ar    1  UNL1        0.0312
     24 C         139.6900  140.6119  165.7302 C.ar    1  UNL1        0.0226
     25 H         139.3169  136.4104  163.6421 H       1  UNL1        0.1233
     26 C         140.1633  144.8554  158.6974 C.ar    1  UNL1       -0.0205
     27 C         140.2876  145.8303  157.5643 C.ar    1  UNL1       -0.0042
     28 C         139.9044  145.4173  156.1740 C.ar    1  UNL1       -0.0003
     29 C         139.3970  144.0293  155.9170 C.ar    1  UNL1       -0.0000
     30 C         139.2728  143.0543  157.0502 C.ar    1  UNL1       -0.0003
     31 C         139.6559  143.4674  158.4404 C.ar    1  UNL1       -0.0039
     32 C         140.5465  145.2684  160.0875 C.3     1  UNL1        0.0476
     33 C         141.8785  144.8675  160.6488 C.3     1  UNL1        0.0941
     34 C         143.7987  144.9094  164.1217 C.3     1  UNL1        0.0946
     35 C         143.4748  144.6273  162.6845 C.2     1  UNL1        0.2230
     36 O         144.4233  143.8229  161.8458 O.2     1  UNL1       -0.2751
     37 N         142.2024  145.1496  162.0860 N.am    1  UNL1       -0.3040
     38 H         141.5799  145.6775  162.6365 H       1  UNL1        0.1494
@<TRIPOS>BOND
     1    34    35    1
     2    35    36    2
     3    35    37   am
     4    37    33    1
     5    33    32    1
     6    32    26    1
     7    26    27   ar
     8    27    28   ar
     9    28    29   ar
    10    29    30   ar
    11    30    31   ar
    12    31     1    1
    13     1     2   ar
    14     2     3   ar
    15     3     4   ar
    16     8     4    1
    17     8     9    1
    18     9    10    1
    19    10    11    1
    20    11    12    1
    21    13    12    1
    22    13    14    1
    23    14    15    1
    24    15    16    2
    25    15    17    1
    26    17    18   ar
    27    18    19   ar
    28    19    20    1
    29    19    21   ar
    30    21    22    1
    31    21    23   ar
    32    23    24   ar
    33     4     5   ar
    34     5     6    1
    35     5     7   ar
    36    31    26   ar
    37     7     1   ar
    38    13     8    1
    39    24    17   ar
    40    24    13    1
    41    37    38    1
    42    10    25    1
