@<TRIPOS>MOLECULE
*****
 39 42 0 0 0
SMALL
GASTEIGER

@<TRIPOS>ATOM
      1 C         142.3319  137.7095  158.2571 C.ar    1  UNL1        0.1459
      2 C         140.9818  138.3466  158.1117 C.ar    1  UNL1        0.0391
      3 C         140.2696  138.8788  159.3198 C.ar    1  UNL1        0.0228
      4 C         140.9077  138.7739  160.6733 C.ar    1  UNL1        0.0894
      5 N         140.4496  139.2055  162.0349 N.ar    1  UNL1       -0.2239
      6 C         141.5168  138.8351  163.0218 C.ar    1  UNL1        0.1657
      7 S         142.6343  138.1746  162.2701 S.2     1  UNL1       -0.0513
      8 C         142.2578  138.1368  160.8187 C.ar    1  UNL1        0.0528
      9 C         142.9699  137.6046  159.6105 C.ar    1  UNL1        0.0456
     10 N         141.4740  139.0818  164.5008 N.am    1  UNL1       -0.2606
     11 C         141.3727  140.4837  165.0247 C.2     1  UNL1        0.2509
     12 O         141.3142  141.6389  164.0695 O.2     1  UNL1       -0.2698
     13 H         141.5124  138.3237  165.1277 H       1  UNL1        0.1571
     14 C         141.3299  140.7305  166.5036 C.ar    1  UNL1        0.0536
     15 C         140.0970  140.3871  167.2859 C.ar    1  UNL1        0.0084
     16 C         140.0542  140.6339  168.7648 C.ar    1  UNL1        0.0715
     17 C         141.2444  141.2240  169.4615 C.ar    1  UNL1        0.0077
     18 C         142.4773  141.5674  168.6792 C.ar    1  UNL1        0.0715
     19 C         142.5201  141.3206  167.2002 C.ar    1  UNL1        0.0084
     20 C         138.8213  140.2905  169.5472 C.3     1  UNL1        0.4186
     21 F         137.5884  139.9472  170.3295 F       1  UNL1       -0.1659
     22 F         138.3725  139.3820  168.4412 F       1  UNL1       -0.1659
     23 F         139.2700  141.1991  170.6531 F       1  UNL1       -0.1659
     24 C         143.6674  142.1575  169.3758 C.3     1  UNL1        0.4186
     25 F         144.8576  142.7476  170.0724 F       1  UNL1       -0.1659
     26 F         144.0414  142.8864  168.1193 F       1  UNL1       -0.1659
     27 F         143.2935  141.4286  170.6324 F       1  UNL1       -0.1659
     28 O         143.0441  137.1772  157.0489 O.3     1  UNL1       -0.4534
     29 C         143.2343  133.2599  156.4422 C.ar    1  UNL1        0.1375
     30 C         143.5548  134.6315  156.9581 C.ar    1  UNL1        0.0612
     31 C         142.7237  135.8057  156.5331 C.ar    1  UNL1        0.1485
     32 C         141.5723  135.6083  155.5922 C.ar    1  UNL1        0.0582
     33 C         141.2519  134.2367  155.0763 C.ar    1  UNL1        0.1021
     34 N         142.0829  133.0625  155.5013 N.ar    1  UNL1       -0.2391
     35 C         144.3297  129.8949  158.2386 C.3     1  UNL1        0.1110
     36 N         143.4987  131.0691  157.8136 N.am    1  UNL1       -0.2979
     37 C         144.0653  132.0857  156.8672 C.2     1  UNL1        0.2637
     38 O         145.4629  131.9280  156.3459 O.2     1  UNL1       -0.2685
     39 H         142.5814  131.1726  158.1558 H       1  UNL1        0.1498
@<TRIPOS>BOND
     1    35    36    1
     2    36    37   am
     3    37    38    2
     4    37    29    1
     5    29    30   ar
     6    30    31   ar
     7    31    28    1
     8    28     1    1
     9     1     2   ar
    10     2     3   ar
    11     3     4   ar
    12     4     5   ar
    13     5     6   ar
    14     6    10    1
    15    10    11   am
    16    11    12    2
    17    11    14    1
    18    14    15   ar
    19    15    16   ar
    20    16    20    1
    21    20    21    1
    22    20    22    1
    23    20    23    1
    24    16    17   ar
    25    17    18   ar
    26    18    24    1
    27    24    25    1
    28    24    26    1
    29    24    27    1
    30    18    19   ar
    31     6     7   ar
    32     7     8   ar
    33     8     9   ar
    34    31    32   ar
    35    32    33   ar
    36    33    34   ar
    37    34    29   ar
    38     9     1   ar
    39     8     4   ar
    40    19    14   ar
    41    36    39    1
    42    10    13    1
@<TRIPOS>MOLECULE
*****
 39 42 0 0 0
SMALL
GASTEIGER

@<TRIPOS>ATOM
      1 C         142.4690  137.6145  158.4122 C.ar    1  UNL1        0.1459
      2 C         141.2147  138.4006  158.1702 C.ar    1  UNL1        0.0391
      3 C         140.4842  139.0213  159.3239 C.ar    1  UNL1        0.0228
      4 C         141.0081  138.8558  160.7197 C.ar    1  UNL1        0.0894
      5 N         140.5070  139.3488  162.0449 N.ar    1  UNL1       -0.2239
      6 C         141.4516  138.8673  163.1059 C.ar    1  UNL1        0.1657
      7 S         142.5366  138.0768  162.4364 S.2     1  UNL1       -0.0513
      8 C         142.2624  138.0697  160.9617 C.ar    1  UNL1        0.0528
      9 C         142.9929  137.4491  159.8080 C.ar    1  UNL1        0.0456
     10 N         141.3324  139.1301  164.5779 N.am    1  UNL1       -0.2606
     11 C         141.6345  140.4945  165.1230 C.2     1  UNL1        0.2509
     12 O         142.0559  141.5960  164.1961 O.2     1  UNL1       -0.2698
     13 H         141.0558  138.4071  165.1862 H       1  UNL1        0.1571
     14 C         141.5153  140.7573  166.5949 C.ar    1  UNL1        0.0536
     15 C         142.6510  141.3972  167.3370 C.ar    1  UNL1        0.0084
     16 C         142.5318  141.6600  168.8089 C.ar    1  UNL1        0.0715
     17 C         141.2767  141.2831  169.5389 C.ar    1  UNL1        0.0077
     18 C         140.1409  140.6432  168.7968 C.ar    1  UNL1        0.0715
     19 C         140.2602  140.3804  167.3248 C.ar    1  UNL1        0.0084
     20 C         143.6676  142.2998  169.5510 C.3     1  UNL1        0.4186
     21 F         144.8033  142.9396  170.2931 F       1  UNL1       -0.1659
     22 F         144.1885  142.8676  168.2641 F       1  UNL1       -0.1659
     23 F         143.1466  141.7321  170.8379 F       1  UNL1       -0.1659
     24 C         138.8859  140.2663  169.5267 C.3     1  UNL1        0.4186
     25 F         137.6309  139.8893  170.2566 F       1  UNL1       -0.1659
     26 F         139.3484  141.0435  170.7233 F       1  UNL1       -0.1659
     27 F         138.4234  139.4890  168.3300 F       1  UNL1       -0.1659
     28 O         143.1996  136.9938  157.2585 O.3     1  UNL1       -0.4534
     29 C         142.6105  133.1739  156.3575 C.ar    1  UNL1        0.1375
     30 C         143.1556  134.4077  157.0140 C.ar    1  UNL1        0.0612
     31 C         142.6546  135.7601  156.6020 C.ar    1  UNL1        0.1485
     32 C         141.6085  135.8789  155.5334 C.ar    1  UNL1        0.0582
     33 C         141.0635  134.6453  154.8770 C.ar    1  UNL1        0.1021
     34 N         141.5645  133.2928  155.2890 N.ar    1  UNL1       -0.2391
     35 C         144.6937  130.3524  158.2148 C.3     1  UNL1        0.1110
     36 N         144.1927  131.7049  157.8028 N.am    1  UNL1       -0.2979
     37 C         143.1115  131.8215  156.7695 C.2     1  UNL1        0.2637
     38 O         142.5314  130.5855  156.1482 O.2     1  UNL1       -0.2685
     39 H         144.5734  132.5161  158.2105 H       1  UNL1        0.1498
@<TRIPOS>BOND
     1    35    36    1
     2    36    37   am
     3    37    38    2
     4    37    29    1
     5    29    30   ar
     6    30    31   ar
     7    31    28    1
     8    28     1    1
     9     1     2   ar
    10     2     3   ar
    11     3     4   ar
    12     4     5   ar
    13     5     6   ar
    14     6    10    1
    15    10    11   am
    16    11    12    2
    17    11    14    1
    18    14    15   ar
    19    15    16   ar
    20    16    20    1
    21    20    21    1
    22    20    22    1
    23    20    23    1
    24    16    17   ar
    25    17    18   ar
    26    18    24    1
    27    24    25    1
    28    24    26    1
    29    24    27    1
    30    18    19   ar
    31     6     7   ar
    32     7     8   ar
    33     8     9   ar
    34    31    32   ar
    35    32    33   ar
    36    33    34   ar
    37    34    29   ar
    38     9     1   ar
    39     8     4   ar
    40    19    14   ar
    41    36    39    1
    42    10    13    1
@<TRIPOS>MOLECULE
*****
 39 42 0 0 0
SMALL
GASTEIGER

@<TRIPOS>ATOM
      1 C         140.4159  144.1462  156.1404 C.ar    1  UNL1        0.1459
      2 C         138.9668  143.7638  156.0796 C.ar    1  UNL1        0.0391
      3 C         138.3230  143.0765  157.2471 C.ar    1  UNL1        0.0228
      4 C         139.1283  142.7715  158.4753 C.ar    1  UNL1        0.0894
      5 N         138.7691  142.1084  159.7720 N.ar    1  UNL1       -0.2239
      6 C         139.9962  142.0810  160.6341 C.ar    1  UNL1        0.1657
      7 S         141.1139  142.7271  159.8702 S.2     1  UNL1       -0.0513
      8 C         140.5774  143.1539  158.5360 C.ar    1  UNL1        0.0528
      9 C         141.2213  143.8412  157.3686 C.ar    1  UNL1        0.0456
     10 N         140.0895  141.5080  162.0173 N.am    1  UNL1       -0.2606
     11 C         139.0929  141.9094  163.0641 C.2     1  UNL1        0.2509
     12 O         138.0031  142.8837  162.7277 O.2     1  UNL1       -0.2698
     13 H         140.8047  140.8685  162.2380 H       1  UNL1        0.1571
     14 C         139.1861  141.3365  164.4472 C.ar    1  UNL1        0.0536
     15 C         139.8890  142.1007  165.5297 C.ar    1  UNL1        0.0084
     16 C         139.9822  141.5278  166.9128 C.ar    1  UNL1        0.0715
     17 C         139.3725  140.1906  167.2135 C.ar    1  UNL1        0.0077
     18 C         138.6696  139.4264  166.1309 C.ar    1  UNL1        0.0715
     19 C         138.5765  139.9994  164.7477 C.ar    1  UNL1        0.0084
     20 C         140.6851  142.2920  167.9954 C.3     1  UNL1        0.4186
     21 F         141.3879  143.0562  169.0780 F       1  UNL1       -0.1659
     22 F         140.0084  143.5526  167.5449 F       1  UNL1       -0.1659
     23 F         141.3618  141.0314  168.4460 F       1  UNL1       -0.1659
     24 C         138.0600  138.0893  166.4314 C.3     1  UNL1        0.4186
     25 F         137.4503  136.7522  166.7320 F       1  UNL1       -0.1659
     26 F         137.1759  138.7243  167.4634 F       1  UNL1       -0.1659
     27 F         138.9441  137.4541  165.3994 F       1  UNL1       -0.1659
     28 O         141.0599  144.8336  154.9729 O.3     1  UNL1       -0.4534
     29 C         139.4234  148.4435  155.1762 C.ar    1  UNL1        0.1375
     30 C         139.8484  147.0563  155.5575 C.ar    1  UNL1        0.0612
     31 C         140.6349  146.2207  154.5916 C.ar    1  UNL1        0.1485
     32 C         140.9966  146.7722  153.2443 C.ar    1  UNL1        0.0582
     33 C         140.5716  148.1593  152.8630 C.ar    1  UNL1        0.1021
     34 N         139.7851  148.9949  153.8289 N.ar    1  UNL1       -0.2391
     35 C         137.6994  149.6716  158.5332 C.3     1  UNL1        0.1110
     36 N         138.4859  148.8360  157.5672 N.am    1  UNL1       -0.2979
     37 C         138.6369  149.2791  156.1421 C.2     1  UNL1        0.2637
     38 O         138.0012  150.5578  155.6830 O.2     1  UNL1       -0.2685
     39 H         138.9031  147.9967  157.8686 H       1  UNL1        0.1498
@<TRIPOS>BOND
     1    35    36    1
     2    36    37   am
     3    37    38    2
     4    37    29    1
     5    29    30   ar
     6    30    31   ar
     7    31    28    1
     8    28     1    1
     9     1     2   ar
    10     2     3   ar
    11     3     4   ar
    12     4     5   ar
    13     5     6   ar
    14     6    10    1
    15    10    11   am
    16    11    12    2
    17    11    14    1
    18    14    15   ar
    19    15    16   ar
    20    16    20    1
    21    20    21    1
    22    20    22    1
    23    20    23    1
    24    16    17   ar
    25    17    18   ar
    26    18    24    1
    27    24    25    1
    28    24    26    1
    29    24    27    1
    30    18    19   ar
    31     6     7   ar
    32     7     8   ar
    33     8     9   ar
    34    31    32   ar
    35    32    33   ar
    36    33    34   ar
    37    34    29   ar
    38     9     1   ar
    39     8     4   ar
    40    19    14   ar
    41    36    39    1
    42    10    13    1
@<TRIPOS>MOLECULE
*****
 39 42 0 0 0
SMALL
GASTEIGER

@<TRIPOS>ATOM
      1 C         139.9496  144.7517  157.1072 C.ar    1  UNL1        0.1459
      2 C         140.9772  145.6894  157.6682 C.ar    1  UNL1        0.0391
      3 C         141.4891  145.4927  159.0644 C.ar    1  UNL1        0.0228
      4 C         140.9734  144.3584  159.8995 C.ar    1  UNL1        0.0894
      5 N         141.2889  143.9174  161.2981 N.ar    1  UNL1       -0.2239
      6 C         140.4562  142.7072  161.6014 C.ar    1  UNL1        0.1657
      7 S         139.6262  142.4003  160.3903 S.2     1  UNL1       -0.0513
      8 C         139.9458  143.4208  159.3385 C.ar    1  UNL1        0.0528
      9 C         139.4339  143.6175  157.9423 C.ar    1  UNL1        0.0456
     10 N         140.4540  141.9387  162.8897 N.am    1  UNL1       -0.2606
     11 C         139.3647  142.1646  163.8958 C.2     1  UNL1        0.2509
     12 O         138.2776  143.1590  163.6137 O.2     1  UNL1       -0.2698
     13 H         141.1675  141.2861  163.0748 H       1  UNL1        0.1571
     14 C         139.3624  141.3963  165.1840 C.ar    1  UNL1        0.0536
     15 C         138.6633  140.0717  165.2660 C.ar    1  UNL1        0.0084
     16 C         138.6610  139.3033  166.5542 C.ar    1  UNL1        0.0715
     17 C         139.3579  139.8595  167.7605 C.ar    1  UNL1        0.0077
     18 C         140.0571  141.1840  167.6785 C.ar    1  UNL1        0.0715
     19 C         140.0593  141.9524  166.3902 C.ar    1  UNL1        0.0084
     20 C         137.9619  137.9787  166.6362 C.3     1  UNL1        0.4186
     21 F         137.2627  136.6542  166.7182 F       1  UNL1       -0.1659
     22 F         137.1257  138.4904  167.7716 F       1  UNL1       -0.1659
     23 F         138.7981  137.4671  165.5009 F       1  UNL1       -0.1659
     24 C         140.7539  141.7402  168.8847 C.3     1  UNL1        0.4186
     25 F         141.4508  142.2964  170.0909 F       1  UNL1       -0.1659
     26 F         140.2816  140.5709  169.6968 F       1  UNL1       -0.1659
     27 F         141.2264  142.9096  168.0726 F       1  UNL1       -0.1659
     28 O         139.4377  144.9484  155.7110 O.3     1  UNL1       -0.4534
     29 C         139.4767  148.7689  154.6376 C.ar    1  UNL1        0.1375
     30 C         139.1512  147.5100  155.3855 C.ar    1  UNL1        0.0612
     31 C         139.7631  146.2072  154.9631 C.ar    1  UNL1        0.1485
     32 C         140.7005  146.1634  153.7929 C.ar    1  UNL1        0.0582
     33 C         141.0260  147.4222  153.0451 C.ar    1  UNL1        0.1021
     34 N         140.4141  148.7250  153.4674 N.ar    1  UNL1       -0.2391
     35 C         138.6290  152.6434  154.7764 C.3     1  UNL1        0.1110
     36 N         139.2409  151.3407  154.3541 N.am    1  UNL1       -0.2979
     37 C         138.8648  150.0716  155.0599 C.2     1  UNL1        0.2637
     38 O         137.8769  150.1054  156.1881 O.2     1  UNL1       -0.2685
     39 H         139.8893  151.3185  153.6136 H       1  UNL1        0.1498
@<TRIPOS>BOND
     1    35    36    1
     2    36    37   am
     3    37    38    2
     4    37    29    1
     5    29    30   ar
     6    30    31   ar
     7    31    28    1
     8    28     1    1
     9     1     2   ar
    10     2     3   ar
    11     3     4   ar
    12     4     5   ar
    13     5     6   ar
    14     6    10    1
    15    10    11   am
    16    11    12    2
    17    11    14    1
    18    14    15   ar
    19    15    16   ar
    20    16    20    1
    21    20    21    1
    22    20    22    1
    23    20    23    1
    24    16    17   ar
    25    17    18   ar
    26    18    24    1
    27    24    25    1
    28    24    26    1
    29    24    27    1
    30    18    19   ar
    31     6     7   ar
    32     7     8   ar
    33     8     9   ar
    34    31    32   ar
    35    32    33   ar
    36    33    34   ar
    37    34    29   ar
    38     9     1   ar
    39     8     4   ar
    40    19    14   ar
    41    36    39    1
    42    10    13    1
@<TRIPOS>MOLECULE
*****
 39 42 0 0 0
SMALL
GASTEIGER

@<TRIPOS>ATOM
      1 C         141.7512  136.9560  155.1467 C.ar    1  UNL1        0.1459
      2 C         143.0493  137.6630  155.4015 C.ar    1  UNL1        0.0391
      3 C         143.2331  138.4644  156.6561 C.ar    1  UNL1        0.0228
      4 C         142.1189  138.5587  157.6559 C.ar    1  UNL1        0.0894
      5 N         142.0092  139.2690  158.9725 N.ar    1  UNL1       -0.2239
      6 C         140.6432  139.0010  159.5314 C.ar    1  UNL1        0.1657
      7 S         139.9087  138.1250  158.5601 S.2     1  UNL1       -0.0513
      8 C         140.8207  137.8517  157.4010 C.ar    1  UNL1        0.0528
      9 C         140.6369  137.0504  156.1464 C.ar    1  UNL1        0.0456
     10 N         140.1060  139.5181  160.8330 N.am    1  UNL1       -0.2606
     11 C         140.2310  138.6905  162.0777 C.2     1  UNL1        0.2509
     12 O         140.8932  137.3457  162.0208 O.2     1  UNL1       -0.2698
     13 H         139.6714  140.4007  160.8702 H       1  UNL1        0.1571
     14 C         139.6939  139.2075  163.3792 C.ar    1  UNL1        0.0536
     15 C         139.8239  140.6627  163.7192 C.ar    1  UNL1        0.0084
     16 C         139.2868  141.1798  165.0207 C.ar    1  UNL1        0.0715
     17 C         138.6195  140.2416  165.9824 C.ar    1  UNL1        0.0077
     18 C         138.4894  138.7865  165.6425 C.ar    1  UNL1        0.0715
     19 C         139.0266  138.2694  164.3408 C.ar    1  UNL1        0.0084
     20 C         139.4168  142.6349  165.3607 C.3     1  UNL1        0.4186
     21 F         139.5469  144.0901  165.7006 F       1  UNL1       -0.1659
     22 F         138.0442  142.8861  164.8105 F       1  UNL1       -0.1659
     23 F         140.7895  142.3837  165.9109 F       1  UNL1       -0.1659
     24 C         137.8222  137.8483  166.6040 C.3     1  UNL1        0.4186
     25 F         137.1550  136.9102  167.5656 F       1  UNL1       -0.1659
     26 F         137.4529  139.0087  167.4799 F       1  UNL1       -0.1659
     27 F         138.1915  136.6879  165.7282 F       1  UNL1       -0.1659
     28 O         141.5672  136.1547  153.8921 O.3     1  UNL1       -0.4534
     29 C         143.1818  132.6927  154.9683 C.ar    1  UNL1        0.1375
     30 C         142.7231  134.1200  155.0207 C.ar    1  UNL1        0.0612
     31 C         142.0260  134.7275  153.8397 C.ar    1  UNL1        0.1485
     32 C         141.7876  133.9078  152.6062 C.ar    1  UNL1        0.0582
     33 C         142.2463  132.4807  152.5538 C.ar    1  UNL1        0.1021
     34 N         142.9434  131.8731  153.7349 N.ar    1  UNL1       -0.2391
     35 C         145.5724  132.2840  158.1097 C.3     1  UNL1        0.1110
     36 N         144.8753  132.8915  156.9286 N.am    1  UNL1       -0.2979
     37 C         143.8789  132.0852  156.1494 C.2     1  UNL1        0.2637
     38 O         143.5797  130.6713  156.5512 O.2     1  UNL1       -0.2685
     39 H         145.0717  133.8195  156.6648 H       1  UNL1        0.1498
@<TRIPOS>BOND
     1    35    36    1
     2    36    37   am
     3    37    38    2
     4    37    29    1
     5    29    30   ar
     6    30    31   ar
     7    31    28    1
     8    28     1    1
     9     1     2   ar
    10     2     3   ar
    11     3     4   ar
    12     4     5   ar
    13     5     6   ar
    14     6    10    1
    15    10    11   am
    16    11    12    2
    17    11    14    1
    18    14    15   ar
    19    15    16   ar
    20    16    20    1
    21    20    21    1
    22    20    22    1
    23    20    23    1
    24    16    17   ar
    25    17    18   ar
    26    18    24    1
    27    24    25    1
    28    24    26    1
    29    24    27    1
    30    18    19   ar
    31     6     7   ar
    32     7     8   ar
    33     8     9   ar
    34    31    32   ar
    35    32    33   ar
    36    33    34   ar
    37    34    29   ar
    38     9     1   ar
    39     8     4   ar
    40    19    14   ar
    41    36    39    1
    42    10    13    1
@<TRIPOS>MOLECULE
*****
 39 42 0 0 0
SMALL
GASTEIGER

@<TRIPOS>ATOM
      1 C         140.1222  145.0121  156.6958 C.ar    1  UNL1        0.1459
      2 C         141.3182  145.7686  157.1930 C.ar    1  UNL1        0.0391
      3 C         141.8460  145.5135  158.5737 C.ar    1  UNL1        0.0228
      4 C         141.1779  144.5020  159.4571 C.ar    1  UNL1        0.0894
      5 N         141.4705  144.0404  160.8541 N.ar    1  UNL1       -0.2239
      6 C         140.4553  142.9986  161.2201 C.ar    1  UNL1        0.1657
      7 S         139.5353  142.8164  160.0494 S.2     1  UNL1       -0.0513
      8 C         139.9819  143.7456  158.9599 C.ar    1  UNL1        0.0528
      9 C         139.4541  144.0006  157.5792 C.ar    1  UNL1        0.0456
     10 N         140.3743  142.2673  162.5273 N.am    1  UNL1       -0.2606
     11 C         140.0659  143.0180  163.7888 C.2     1  UNL1        0.2509
     12 O         139.8384  144.5000  163.7430 O.2     1  UNL1       -0.2698
     13 H         140.5236  141.2947  162.5573 H       1  UNL1        0.1571
     14 C         139.9849  142.2869  165.0960 C.ar    1  UNL1        0.0536
     15 C         140.6775  142.8371  166.3073 C.ar    1  UNL1        0.0084
     16 C         140.5965  142.1060  167.6145 C.ar    1  UNL1        0.0715
     17 C         139.8228  140.8244  167.7104 C.ar    1  UNL1        0.0077
     18 C         139.1301  140.2741  166.4990 C.ar    1  UNL1        0.0715
     19 C         139.2112  141.0054  165.1918 C.ar    1  UNL1        0.0084
     20 C         141.2892  142.6562  168.8259 C.3     1  UNL1        0.4186
     21 F         141.9819  143.2065  170.0372 F       1  UNL1       -0.1659
     22 F         142.4668  141.7671  168.5564 F       1  UNL1       -0.1659
     23 F         140.1116  143.5454  169.0953 F       1  UNL1       -0.1659
     24 C         138.3565  138.9927  166.5948 C.3     1  UNL1        0.4186
     25 F         137.5828  137.7112  166.6906 F       1  UNL1       -0.1659
     26 F         138.5797  138.7485  165.1318 F       1  UNL1       -0.1659
     27 F         138.1331  139.2369  168.0579 F       1  UNL1       -0.1659
     28 O         139.5943  145.2671  155.3151 O.3     1  UNL1       -0.4534
     29 C         139.5231  149.1345  154.4274 C.ar    1  UNL1        0.1375
     30 C         139.2332  147.8320  155.1125 C.ar    1  UNL1        0.0612
     31 C         139.8841  146.5696  154.6300 C.ar    1  UNL1        0.1485
     32 C         140.8249  146.6099  153.4623 C.ar    1  UNL1        0.0582
     33 C         141.1147  147.9124  152.7773 C.ar    1  UNL1        0.1021
     34 N         140.4638  149.1748  153.2598 N.ar    1  UNL1       -0.2391
     35 C         138.5358  152.9667  154.7279 C.3     1  UNL1        0.1110
     36 N         139.1867  151.7043  154.2453 N.am    1  UNL1       -0.2979
     37 C         138.8721  150.3969  154.9100 C.2     1  UNL1        0.2637
     38 O         137.9067  150.3518  156.0571 O.2     1  UNL1       -0.2685
     39 H         139.8203  151.7339  153.4924 H       1  UNL1        0.1498
@<TRIPOS>BOND
     1    35    36    1
     2    36    37   am
     3    37    38    2
     4    37    29    1
     5    29    30   ar
     6    30    31   ar
     7    31    28    1
     8    28     1    1
     9     1     2   ar
    10     2     3   ar
    11     3     4   ar
    12     4     5   ar
    13     5     6   ar
    14     6    10    1
    15    10    11   am
    16    11    12    2
    17    11    14    1
    18    14    15   ar
    19    15    16   ar
    20    16    20    1
    21    20    21    1
    22    20    22    1
    23    20    23    1
    24    16    17   ar
    25    17    18   ar
    26    18    24    1
    27    24    25    1
    28    24    26    1
    29    24    27    1
    30    18    19   ar
    31     6     7   ar
    32     7     8   ar
    33     8     9   ar
    34    31    32   ar
    35    32    33   ar
    36    33    34   ar
    37    34    29   ar
    38     9     1   ar
    39     8     4   ar
    40    19    14   ar
    41    36    39    1
    42    10    13    1
@<TRIPOS>MOLECULE
*****
 39 42 0 0 0
SMALL
GASTEIGER

@<TRIPOS>ATOM
      1 C         141.9861  136.8418  154.7681 C.ar    1  UNL1        0.1459
      2 C         143.2616  137.5643  155.0855 C.ar    1  UNL1        0.0391
      3 C         143.3675  138.3845  156.3369 C.ar    1  UNL1        0.0228
      4 C         142.1979  138.4822  157.2709 C.ar    1  UNL1        0.0894
      5 N         142.0080  139.2095  158.5690 N.ar    1  UNL1       -0.2239
      6 C         140.6150  138.9364  159.0538 C.ar    1  UNL1        0.1657
      7 S         139.9441  138.0404  158.0554 S.2     1  UNL1       -0.0513
      8 C         140.9223  137.7596  156.9535 C.ar    1  UNL1        0.0528
      9 C         140.8164  136.9394  155.7021 C.ar    1  UNL1        0.0456
     10 N         140.0008  139.4664  160.3156 N.am    1  UNL1       -0.2606
     11 C         140.2455  138.7672  161.6199 C.2     1  UNL1        0.2509
     12 O         141.1044  137.5381  161.6625 O.2     1  UNL1       -0.2698
     13 H         139.4372  140.2731  160.2876 H       1  UNL1        0.1571
     14 C         139.6314  139.2971  162.8817 C.ar    1  UNL1        0.0536
     15 C         139.1075  138.3469  163.9174 C.ar    1  UNL1        0.0084
     16 C         138.4934  138.8768  165.1791 C.ar    1  UNL1        0.0715
     17 C         138.4030  140.3570  165.4052 C.ar    1  UNL1        0.0077
     18 C         138.9269  141.3072  164.3695 C.ar    1  UNL1        0.0715
     19 C         139.5411  140.7772  163.1077 C.ar    1  UNL1        0.0084
     20 C         137.9695  137.9266  166.2148 C.3     1  UNL1        0.4186
     21 F         137.4457  136.9764  167.2505 F       1  UNL1       -0.1659
     22 F         137.3727  139.0777  166.9690 F       1  UNL1       -0.1659
     23 F         138.5663  136.7755  165.4606 F       1  UNL1       -0.1659
     24 C         138.8366  142.7873  164.5955 C.3     1  UNL1        0.4186
     25 F         138.7463  144.2673  164.8215 F       1  UNL1       -0.1659
     26 F         140.3102  142.9152  164.3465 F       1  UNL1       -0.1659
     27 F         137.3629  142.6594  164.8445 F       1  UNL1       -0.1659
     28 O         141.8801  136.0215  153.5167 O.3     1  UNL1       -0.4534
     29 C         143.1942  132.5020  154.7959 C.ar    1  UNL1        0.1375
     30 C         142.8559  133.9631  154.7660 C.ar    1  UNL1        0.0612
     31 C         142.2184  134.5605  153.5467 C.ar    1  UNL1        0.1485
     32 C         141.9193  133.6968  152.3573 C.ar    1  UNL1        0.0582
     33 C         142.2577  132.2358  152.3872 C.ar    1  UNL1        0.1021
     34 N         142.8951  131.6384  153.6066 N.ar    1  UNL1       -0.2391
     35 C         145.4910  132.0889  158.0060 C.3     1  UNL1        0.1110
     36 N         144.8535  132.6863  156.7867 N.am    1  UNL1       -0.2979
     37 C         143.8317  131.9047  156.0153 C.2     1  UNL1        0.2637
     38 O         143.4473  130.5257  156.4633 O.2     1  UNL1       -0.2685
     39 H         145.1058  133.5914  156.4926 H       1  UNL1        0.1498
@<TRIPOS>BOND
     1    35    36    1
     2    36    37   am
     3    37    38    2
     4    37    29    1
     5    29    30   ar
     6    30    31   ar
     7    31    28    1
     8    28     1    1
     9     1     2   ar
    10     2     3   ar
    11     3     4   ar
    12     4     5   ar
    13     5     6   ar
    14     6    10    1
    15    10    11   am
    16    11    12    2
    17    11    14    1
    18    14    15   ar
    19    15    16   ar
    20    16    20    1
    21    20    21    1
    22    20    22    1
    23    20    23    1
    24    16    17   ar
    25    17    18   ar
    26    18    24    1
    27    24    25    1
    28    24    26    1
    29    24    27    1
    30    18    19   ar
    31     6     7   ar
    32     7     8   ar
    33     8     9   ar
    34    31    32   ar
    35    32    33   ar
    36    33    34   ar
    37    34    29   ar
    38     9     1   ar
    39     8     4   ar
    40    19    14   ar
    41    36    39    1
    42    10    13    1
@<TRIPOS>MOLECULE
*****
 39 42 0 0 0
SMALL
GASTEIGER

@<TRIPOS>ATOM
      1 C         141.6236  138.4381  158.1457 C.ar    1  UNL1        0.1459
      2 C         140.1390  138.5038  158.3496 C.ar    1  UNL1        0.0391
      3 C         139.5795  138.7131  159.7255 C.ar    1  UNL1        0.0228
      4 C         140.5046  138.8567  160.8975 C.ar    1  UNL1        0.0894
      5 N         140.2465  139.0708  162.3596 N.ar    1  UNL1       -0.2239
      6 C         141.5716  139.1373  163.0593 C.ar    1  UNL1        0.1657
      7 S         142.6487  138.9644  162.0296 S.2     1  UNL1       -0.0513
      8 C         141.9892  138.7909  160.6936 C.ar    1  UNL1        0.0528
      9 C         142.5487  138.5816  159.3177 C.ar    1  UNL1        0.0456
     10 N         141.7827  139.3410  164.5304 N.am    1  UNL1       -0.2606
     11 C         141.2236  140.5574  165.2069 C.2     1  UNL1        0.2509
     12 O         140.4533  141.5701  164.4123 O.2     1  UNL1       -0.2698
     13 H         142.2883  138.6764  165.0518 H       1  UNL1        0.1571
     14 C         141.4346  140.7612  166.6779 C.ar    1  UNL1        0.0536
     15 C         142.0110  139.6565  167.5130 C.ar    1  UNL1        0.0084
     16 C         142.2221  139.8602  168.9840 C.ar    1  UNL1        0.0715
     17 C         141.8567  141.1688  169.6200 C.ar    1  UNL1        0.0077
     18 C         141.2803  142.2735  168.7849 C.ar    1  UNL1        0.0715
     19 C         141.0693  142.0697  167.3138 C.ar    1  UNL1        0.0084
     20 C         142.7984  138.7555  169.8191 C.3     1  UNL1        0.4186
     21 F         143.3748  137.6508  170.6542 F       1  UNL1       -0.1659
     22 F         142.4270  139.5036  171.0650 F       1  UNL1       -0.1659
     23 F         143.1699  138.0074  168.5731 F       1  UNL1       -0.1659
     24 C         140.9150  143.5819  169.4207 C.3     1  UNL1        0.4186
     25 F         140.5497  144.8904  170.0566 F       1  UNL1       -0.1659
     26 F         141.9994  143.3898  170.4391 F       1  UNL1       -0.1659
     27 F         139.8306  143.7742  168.4023 F       1  UNL1       -0.1659
     28 O         142.1832  138.2288  156.7698 O.3     1  UNL1       -0.4534
     29 C         142.6487  134.3606  156.0144 C.ar    1  UNL1        0.1375
     30 C         142.7720  135.7000  156.6785 C.ar    1  UNL1        0.0612
     31 C         142.0599  136.8895  156.1057 C.ar    1  UNL1        0.1485
     32 C         141.2246  136.7396  154.8688 C.ar    1  UNL1        0.0582
     33 C         141.1013  135.4003  154.2048 C.ar    1  UNL1        0.1021
     34 N         141.8133  134.2108  154.7776 N.ar    1  UNL1       -0.2391
     35 C         145.2998  132.1752  158.0007 C.3     1  UNL1        0.1110
     36 N         144.5878  133.3647  157.4279 N.am    1  UNL1       -0.2979
     37 C         143.3607  133.1711  156.5871 C.2     1  UNL1        0.2637
     38 O         142.8457  131.7880  156.3191 O.2     1  UNL1       -0.2685
     39 H         144.9258  134.2725  157.6038 H       1  UNL1        0.1498
@<TRIPOS>BOND
     1    35    36    1
     2    36    37   am
     3    37    38    2
     4    37    29    1
     5    29    30   ar
     6    30    31   ar
     7    31    28    1
     8    28     1    1
     9     1     2   ar
    10     2     3   ar
    11     3     4   ar
    12     4     5   ar
    13     5     6   ar
    14     6    10    1
    15    10    11   am
    16    11    12    2
    17    11    14    1
    18    14    15   ar
    19    15    16   ar
    20    16    20    1
    21    20    21    1
    22    20    22    1
    23    20    23    1
    24    16    17   ar
    25    17    18   ar
    26    18    24    1
    27    24    25    1
    28    24    26    1
    29    24    27    1
    30    18    19   ar
    31     6     7   ar
    32     7     8   ar
    33     8     9   ar
    34    31    32   ar
    35    32    33   ar
    36    33    34   ar
    37    34    29   ar
    38     9     1   ar
    39     8     4   ar
    40    19    14   ar
    41    36    39    1
    42    10    13    1
@<TRIPOS>MOLECULE
*****
 39 42 0 0 0
SMALL
GASTEIGER

@<TRIPOS>ATOM
      1 C         142.9514  137.5942  156.9019 C.ar    1  UNL1        0.1459
      2 C         142.5860  138.9954  156.5105 C.ar    1  UNL1        0.0391
      3 C         142.1401  139.9739  157.5562 C.ar    1  UNL1        0.0228
      4 C         142.0596  139.5514  158.9932 C.ar    1  UNL1        0.0894
      5 N         141.6576  140.2897  160.2356 N.ar    1  UNL1       -0.2239
      6 C         141.7746  139.3448  161.3946 C.ar    1  UNL1        0.1657
      7 S         142.2489  138.0226  160.8687 S.2     1  UNL1       -0.0513
      8 C         142.4250  138.1502  159.3845 C.ar    1  UNL1        0.0528
      9 C         142.8710  137.1716  158.3388 C.ar    1  UNL1        0.0456
     10 N         141.4707  139.6658  162.8281 N.am    1  UNL1       -0.2606
     11 C         140.2471  139.0948  163.4813 C.2     1  UNL1        0.2509
     12 O         139.3274  138.2028  162.7012 O.2     1  UNL1       -0.2698
     13 H         142.0743  140.2513  163.3401 H       1  UNL1        0.1571
     14 C         139.9432  139.4158  164.9147 C.ar    1  UNL1        0.0536
     15 C         138.8218  138.7116  165.6194 C.ar    1  UNL1        0.0084
     16 C         138.5178  139.0326  167.0528 C.ar    1  UNL1        0.0715
     17 C         139.3353  140.0577  167.7815 C.ar    1  UNL1        0.0077
     18 C         140.4567  140.7619  167.0767 C.ar    1  UNL1        0.0715
     19 C         140.7606  140.4409  165.6433 C.ar    1  UNL1        0.0084
     20 C         137.3965  138.3284  167.7576 C.3     1  UNL1        0.4186
     21 F         136.2751  137.6242  168.4623 F       1  UNL1       -0.1659
     22 F         137.5367  139.2674  168.9189 F       1  UNL1       -0.1659
     23 F         137.2562  137.3894  166.5962 F       1  UNL1       -0.1659
     24 C         141.2741  141.7870  167.8053 C.3     1  UNL1        0.4186
     25 F         142.0915  142.8122  168.5339 F       1  UNL1       -0.1659
     26 F         141.5931  142.4586  166.5026 F       1  UNL1       -0.1659
     27 F         140.9551  141.1155  169.1082 F       1  UNL1       -0.1659
     28 O         143.3974  136.6155  155.8561 O.3     1  UNL1       -0.4534
     29 C         143.4004  132.7615  156.8028 C.ar    1  UNL1        0.1375
     30 C         143.8191  134.1990  156.7119 C.ar    1  UNL1        0.0612
     31 C         142.9787  135.1781  155.9470 C.ar    1  UNL1        0.1485
     32 C         141.7194  134.7196  155.2730 C.ar    1  UNL1        0.0582
     33 C         141.3007  133.2821  155.3639 C.ar    1  UNL1        0.1021
     34 N         142.1412  132.3031  156.1288 N.ar    1  UNL1       -0.2391
     35 C         144.5096  129.4751  158.7314 C.3     1  UNL1        0.1110
     36 N         143.6691  130.4541  157.9665 N.am    1  UNL1       -0.2979
     37 C         144.2408  131.7824  157.5677 C.2     1  UNL1        0.2637
     38 O         145.6529  132.1315  157.9337 O.2     1  UNL1       -0.2685
     39 H         142.7423  130.2250  157.7262 H       1  UNL1        0.1498
@<TRIPOS>BOND
     1    35    36    1
     2    36    37   am
     3    37    38    2
     4    37    29    1
     5    29    30   ar
     6    30    31   ar
     7    31    28    1
     8    28     1    1
     9     1     2   ar
    10     2     3   ar
    11     3     4   ar
    12     4     5   ar
    13     5     6   ar
    14     6    10    1
    15    10    11   am
    16    11    12    2
    17    11    14    1
    18    14    15   ar
    19    15    16   ar
    20    16    20    1
    21    20    21    1
    22    20    22    1
    23    20    23    1
    24    16    17   ar
    25    17    18   ar
    26    18    24    1
    27    24    25    1
    28    24    26    1
    29    24    27    1
    30    18    19   ar
    31     6     7   ar
    32     7     8   ar
    33     8     9   ar
    34    31    32   ar
    35    32    33   ar
    36    33    34   ar
    37    34    29   ar
    38     9     1   ar
    39     8     4   ar
    40    19    14   ar
    41    36    39    1
    42    10    13    1
