@<TRIPOS>MOLECULE
*****
 41 43 0 0 0
SMALL
GASTEIGER

@<TRIPOS>ATOM
      1 C         139.3328  139.7069  160.9018 C.ar    1  UNL1        0.0597
      2 C         139.2644  138.8271  162.1147 C.ar    1  UNL1        0.0422
      3 C         138.6088  139.3269  163.3678 C.ar    1  UNL1        0.1485
      4 C         138.0217  140.7066  163.4080 C.ar    1  UNL1        0.0743
      5 C         138.0901  141.5865  162.1952 C.ar    1  UNL1        0.1418
      6 C         138.7457  141.0867  160.9421 C.ar    1  UNL1        0.0416
      7 N         141.4802  139.0626  159.5889 N.am    1  UNL1       -0.2644
      8 C         139.9884  139.2071  159.6486 C.2     1  UNL1        0.2508
      9 O         139.1522  138.8518  158.4551 O.2     1  UNL1       -0.2698
     10 H         142.0291  139.2958  160.3723 H       1  UNL1        0.1566
     11 N         143.0620  137.0874  156.6458 N.ar    1  UNL1       -0.2357
     12 C         143.2274  138.5000  156.1689 C.ar    1  UNL1        0.0988
     13 C         142.6549  139.4118  157.2134 C.ar    1  UNL1        0.0565
     14 C         142.1358  138.5627  158.3357 C.ar    1  UNL1        0.1557
     15 N         142.3874  137.1262  157.9849 N.ar    1  UNL1       -0.1534
     16 C         143.4951  135.8528  155.9123 C.3     1  UNL1        0.2423
     17 P         142.8694  134.5288  156.2372 P.3     1  UNL1        0.3677
     18 O         142.2437  133.2049  156.5622 O.2     1  UNL1       -0.2557
     19 O         141.6018  134.9622  155.5623 O.3     1  UNL1       -0.2928
     20 C         141.9754  133.9159  153.2138 C.3     1  UNL1        0.0352
     21 C         141.5482  135.0730  154.0674 C.3     1  UNL1        0.1515
     22 O         144.1370  134.0955  156.9122 O.3     1  UNL1       -0.2928
     23 C         144.4385  132.6352  157.0751 C.3     1  UNL1        0.1515
     24 C         145.4680  132.1884  158.0704 C.3     1  UNL1        0.0352
     25 O         138.5404  138.4470  164.5808 O.3     1  UNL1       -0.4534
     26 C         139.0010  138.9659  165.9106 C.ar    1  UNL1        0.1454
     27 C         140.4100  139.4524  166.0788 C.ar    1  UNL1        0.0388
     28 C         140.8706  139.9712  167.4086 C.ar    1  UNL1        0.0215
     29 C         139.9222  140.0037  168.5704 C.ar    1  UNL1        0.1059
     30 C         138.5133  139.5173  168.4022 C.ar    1  UNL1        0.0215
     31 C         138.0527  138.9984  167.0723 C.ar    1  UNL1        0.0388
     32 S         140.3828  140.5226  169.9003 S.O2    1  UNL1        0.0105
     33 C         140.8434  141.0415  171.2302 C.3     1  UNL1        0.1816
     34 O         141.5991  141.1115  169.2492 O.2     1  UNL1       -0.1686
     35 O         139.1665  139.9338  170.5513 O.2     1  UNL1       -0.1686
     36 O         137.5030  142.9662  162.2354 O.3     1  UNL1       -0.4732
     37 C         138.1296  144.0232  163.0956 C.3     1  UNL1        0.2361
     38 C         137.8186  144.0786  164.5620 C.3     1  UNL1        0.2393
     39 F         138.3799  145.1839  165.4066 F       1  UNL1       -0.2302
     40 C         139.0674  145.0249  162.4895 C.3     1  UNL1        0.2393
     41 F         140.3095  145.4308  163.2260 F       1  UNL1       -0.2302
@<TRIPOS>BOND
     1    20    21    1
     2    21    19    1
     3    19    17    1
     4    17    18    2
     5    17    16    1
     6    16    11    1
     7    11    12   ar
     8    12    13   ar
     9    13    14   ar
    10    14     7    1
    11     7     8   am
    12     8     9    2
    13     8     1    1
    14     1     2   ar
    15     2     3   ar
    16     3    25    1
    17    25    26    1
    18    26    27   ar
    19    27    28   ar
    20    28    29   ar
    21    29    32    1
    22    32    33    1
    23    32    34    2
    24    32    35    2
    25    29    30   ar
    26    30    31   ar
    27     3     4   ar
    28     4     5   ar
    29     5    36    1
    30    36    37    1
    31    37    38    1
    32    38    39    1
    33    37    40    1
    34    40    41    1
    35     5     6   ar
    36    14    15   ar
    37    17    22    1
    38    22    23    1
    39    23    24    1
    40    15    11   ar
    41     6     1   ar
    42    31    26   ar
    43     7    10    1
@<TRIPOS>MOLECULE
*****
 41 43 0 0 0
SMALL
GASTEIGER

@<TRIPOS>ATOM
      1 C         139.5455  139.7827  160.6358 C.ar    1  UNL1        0.0597
      2 C         139.3446  138.9035  161.8343 C.ar    1  UNL1        0.0422
      3 C         138.6655  139.4457  163.0569 C.ar    1  UNL1        0.1485
      4 C         138.1873  140.8673  163.0809 C.ar    1  UNL1        0.0743
      5 C         138.3882  141.7465  161.8824 C.ar    1  UNL1        0.1418
      6 C         139.0673  141.2042  160.6598 C.ar    1  UNL1        0.0416
      7 N         141.7065  139.4009  159.2449 N.am    1  UNL1       -0.2644
      8 C         140.2247  139.2404  159.4132 C.2     1  UNL1        0.2508
      9 O         139.4219  138.5376  158.3588 O.2     1  UNL1       -0.2698
     10 H         142.2334  139.8622  159.9369 H       1  UNL1        0.1566
     11 N         143.4245  137.3374  156.4421 N.ar    1  UNL1       -0.2357
     12 C         143.4369  138.7111  155.8397 C.ar    1  UNL1        0.0988
     13 C         142.7949  139.6514  156.8164 C.ar    1  UNL1        0.0565
     14 C         142.3857  138.8587  158.0223 C.ar    1  UNL1        0.1557
     15 N         142.7748  137.4286  157.7910 N.ar    1  UNL1       -0.1534
     16 C         143.9666  136.0914  155.8070 C.3     1  UNL1        0.2423
     17 P         143.1728  134.8195  155.8534 P.3     1  UNL1        0.3677
     18 O         142.3789  133.5476  155.8997 O.2     1  UNL1       -0.2557
     19 O         144.0808  134.2917  156.9244 O.3     1  UNL1       -0.2928
     20 C         145.3399  132.2926  158.0051 C.3     1  UNL1        0.0352
     21 C         144.2903  132.8134  157.0686 C.3     1  UNL1        0.1515
     22 O         142.2648  135.3473  154.7823 O.3     1  UNL1       -0.2928
     23 C         140.7845  135.4080  155.0168 C.3     1  UNL1        0.1515
     24 C         140.1081  136.7340  155.2014 C.3     1  UNL1        0.0352
     25 O         138.4646  138.5665  164.2555 O.3     1  UNL1       -0.4534
     26 C         138.9045  139.0344  165.6111 C.ar    1  UNL1        0.1454
     27 C         140.3081  139.5220  165.8172 C.ar    1  UNL1        0.0388
     28 C         140.7480  139.9899  167.1727 C.ar    1  UNL1        0.0215
     29 C         139.7844  139.9702  168.3222 C.ar    1  UNL1        0.1059
     30 C         138.3809  139.4827  168.1160 C.ar    1  UNL1        0.0215
     31 C         137.9410  139.0148  166.7605 C.ar    1  UNL1        0.0388
     32 S         140.2243  140.4381  169.6777 S.O2    1  UNL1        0.0105
     33 C         140.6642  140.9060  171.0333 C.3     1  UNL1        0.1816
     34 O         141.4982  140.9618  169.0836 O.2     1  UNL1       -0.1686
     35 O         138.9504  139.9145  170.2719 O.2     1  UNL1       -0.1686
     36 O         137.9100  143.1680  161.9064 O.3     1  UNL1       -0.4732
     37 C         138.7503  144.2312  162.5494 C.3     1  UNL1        0.2361
     38 C         138.6675  144.4596  164.0296 C.3     1  UNL1        0.2393
     39 F         137.3677  144.2517  164.7490 F       1  UNL1       -0.2302
     40 C         139.6734  145.0661  161.7122 C.3     1  UNL1        0.2393
     41 F         140.0152  146.4631  162.1383 F       1  UNL1       -0.2302
@<TRIPOS>BOND
     1    20    21    1
     2    21    19    1
     3    19    17    1
     4    17    18    2
     5    17    16    1
     6    16    11    1
     7    11    12   ar
     8    12    13   ar
     9    13    14   ar
    10    14     7    1
    11     7     8   am
    12     8     9    2
    13     8     1    1
    14     1     2   ar
    15     2     3   ar
    16     3    25    1
    17    25    26    1
    18    26    27   ar
    19    27    28   ar
    20    28    29   ar
    21    29    32    1
    22    32    33    1
    23    32    34    2
    24    32    35    2
    25    29    30   ar
    26    30    31   ar
    27     3     4   ar
    28     4     5   ar
    29     5    36    1
    30    36    37    1
    31    37    38    1
    32    38    39    1
    33    37    40    1
    34    40    41    1
    35     5     6   ar
    36    14    15   ar
    37    17    22    1
    38    22    23    1
    39    23    24    1
    40    15    11   ar
    41     6     1   ar
    42    31    26   ar
    43     7    10    1
@<TRIPOS>MOLECULE
*****
 41 43 0 0 0
SMALL
GASTEIGER

@<TRIPOS>ATOM
      1 C         139.5102  139.7229  160.7058 C.ar    1  UNL1        0.0597
      2 C         139.2489  138.8839  161.9214 C.ar    1  UNL1        0.0422
      3 C         138.6007  139.4942  163.1286 C.ar    1  UNL1        0.1485
      4 C         138.2139  140.9434  163.1202 C.ar    1  UNL1        0.0743
      5 C         138.4752  141.7823  161.9045 C.ar    1  UNL1        0.1418
      6 C         139.1234  141.1721  160.6973 C.ar    1  UNL1        0.0416
      7 N         141.6499  138.9635  159.4428 N.am    1  UNL1       -0.2644
      8 C         140.1584  139.1126  159.4985 C.2     1  UNL1        0.2508
      9 O         139.3151  138.6515  158.3469 O.2     1  UNL1       -0.2698
     10 H         142.2035  139.2661  160.1986 H       1  UNL1        0.1566
     11 N         143.2610  136.7383  156.7008 N.ar    1  UNL1       -0.2357
     12 C         143.3302  138.0902  156.0546 C.ar    1  UNL1        0.0988
     13 C         142.7351  139.0884  157.0031 C.ar    1  UNL1        0.0565
     14 C         142.2981  138.3532  158.2355 C.ar    1  UNL1        0.1557
     15 N         142.6232  136.9008  158.0486 N.ar    1  UNL1       -0.1534
     16 C         143.7447  135.4500  156.1040 C.3     1  UNL1        0.2423
     17 P         142.7802  134.3273  155.8605 P.3     1  UNL1        0.3677
     18 O         141.8158  133.2046  155.6171 O.2     1  UNL1       -0.2557
     19 O         142.4797  134.8805  154.4990 O.3     1  UNL1       -0.2928
     20 C         140.3055  136.2552  154.8635 C.3     1  UNL1        0.0352
     21 C         141.0655  135.2006  154.1150 C.3     1  UNL1        0.1515
     22 O         143.0808  133.7740  157.2220 O.3     1  UNL1       -0.2928
     23 C         144.4396  133.2131  157.5205 C.3     1  UNL1        0.1515
     24 C         144.9135  131.9787  156.8121 C.3     1  UNL1        0.0352
     25 O         138.3394  138.6552  164.3443 O.3     1  UNL1       -0.4534
     26 C         138.8167  139.1153  165.6898 C.ar    1  UNL1        0.1454
     27 C         137.9204  138.9916  166.8863 C.ar    1  UNL1        0.0388
     28 C         138.3977  139.4517  168.2318 C.ar    1  UNL1        0.0215
     29 C         139.7714  140.0356  168.3809 C.ar    1  UNL1        0.1059
     30 C         140.6677  140.1593  167.1845 C.ar    1  UNL1        0.0215
     31 C         140.1904  139.6991  165.8390 C.ar    1  UNL1        0.0388
     32 S         140.2488  140.4957  169.7264 S.O2    1  UNL1        0.0105
     33 C         140.7261  140.9558  171.0719 C.3     1  UNL1        0.1816
     34 O         139.0105  139.9323  170.3584 O.2     1  UNL1       -0.1686
     35 O         141.4870  141.0591  169.0945 O.2     1  UNL1       -0.1686
     36 O         138.0883  143.2316  161.8961 O.3     1  UNL1       -0.4732
     37 C         138.9899  144.2522  162.5248 C.3     1  UNL1        0.2361
     38 C         139.2809  144.1917  163.9951 C.3     1  UNL1        0.2393
     39 F         138.6907  145.2155  164.9192 F       1  UNL1       -0.2302
     40 C         139.6007  145.3334  161.6833 C.3     1  UNL1        0.2393
     41 F         140.4453  146.3949  162.3233 F       1  UNL1       -0.2302
@<TRIPOS>BOND
     1    20    21    1
     2    21    19    1
     3    19    17    1
     4    17    18    2
     5    17    16    1
     6    16    11    1
     7    11    12   ar
     8    12    13   ar
     9    13    14   ar
    10    14     7    1
    11     7     8   am
    12     8     9    2
    13     8     1    1
    14     1     2   ar
    15     2     3   ar
    16     3    25    1
    17    25    26    1
    18    26    27   ar
    19    27    28   ar
    20    28    29   ar
    21    29    32    1
    22    32    33    1
    23    32    34    2
    24    32    35    2
    25    29    30   ar
    26    30    31   ar
    27     3     4   ar
    28     4     5   ar
    29     5    36    1
    30    36    37    1
    31    37    38    1
    32    38    39    1
    33    37    40    1
    34    40    41    1
    35     5     6   ar
    36    14    15   ar
    37    17    22    1
    38    22    23    1
    39    23    24    1
    40    15    11   ar
    41     6     1   ar
    42    31    26   ar
    43     7    10    1
@<TRIPOS>MOLECULE
*****
 41 43 0 0 0
SMALL
GASTEIGER

@<TRIPOS>ATOM
      1 C         139.2307  140.0762  160.6627 C.ar    1  UNL1        0.0597
      2 C         139.0789  139.1504  161.8330 C.ar    1  UNL1        0.0422
      3 C         138.4888  139.6547  163.1165 C.ar    1  UNL1        0.1485
      4 C         138.0504  141.0847  163.2296 C.ar    1  UNL1        0.0743
      5 C         138.2022  142.0105  162.0592 C.ar    1  UNL1        0.1418
      6 C         138.7924  141.5062  160.7758 C.ar    1  UNL1        0.0416
      7 N         138.9243  139.2122  158.2317 N.am    1  UNL1       -0.2644
      8 C         139.8209  139.5719  159.3791 C.2     1  UNL1        0.2508
      9 O         141.3077  139.4274  159.2430 O.2     1  UNL1       -0.2698
     10 H         137.9484  139.3070  158.3210 H       1  UNL1        0.1566
     11 N         140.6385  137.3028  155.3194 N.ar    1  UNL1       -0.2357
     12 C         140.2066  138.5612  154.6264 C.ar    1  UNL1        0.0988
     13 C         139.5119  139.4297  155.6331 C.ar    1  UNL1        0.0565
     14 C         139.5144  138.7079  156.9481 C.ar    1  UNL1        0.1557
     15 N         140.2107  137.3935  156.7542 N.ar    1  UNL1       -0.1534
     16 C         141.3697  136.1553  154.6883 C.3     1  UNL1        0.2423
     17 P         142.7064  135.7331  155.2221 P.3     1  UNL1        0.3677
     18 O         144.0431  135.3108  155.7559 O.2     1  UNL1       -0.2557
     19 O         142.0816  134.5054  155.8158 O.3     1  UNL1       -0.2928
     20 C         142.7621  132.1226  156.5961 C.3     1  UNL1        0.0352
     21 C         142.6509  133.1517  155.5104 C.3     1  UNL1        0.1515
     22 O         143.3312  136.9608  154.6284 O.3     1  UNL1       -0.2928
     23 C         144.2817  137.7873  155.4429 C.3     1  UNL1        0.1515
     24 C         144.9731  138.9649  154.8223 C.3     1  UNL1        0.0352
     25 O         138.3370  138.7289  164.2870 O.3     1  UNL1       -0.4534
     26 C         138.8189  139.1499  165.6437 C.ar    1  UNL1        0.1454
     27 C         140.2057  139.6967  165.8106 C.ar    1  UNL1        0.0388
     28 C         140.6876  140.1177  167.1673 C.ar    1  UNL1        0.0215
     29 C         139.7826  139.9920  168.3570 C.ar    1  UNL1        0.1059
     30 C         138.3959  139.4452  168.1900 C.ar    1  UNL1        0.0215
     31 C         137.9140  139.0242  166.8333 C.ar    1  UNL1        0.0388
     32 S         140.2645  140.4130  169.7137 S.O2    1  UNL1        0.0105
     33 C         140.7464  140.8341  171.0703 C.3     1  UNL1        0.1816
     34 O         138.9370  140.0366  170.3020 O.2     1  UNL1       -0.1686
     35 O         141.5919  140.7895  169.1253 O.2     1  UNL1       -0.1686
     36 O         137.7639  143.4406  162.1723 O.3     1  UNL1       -0.4732
     37 C         138.6738  144.4568  162.7961 C.3     1  UNL1        0.2361
     38 C         138.5979  144.7273  164.2696 C.3     1  UNL1        0.2393
     39 F         137.4265  144.2304  165.0640 F       1  UNL1       -0.2302
     40 C         139.6597  145.2027  161.9465 C.3     1  UNL1        0.2393
     41 F         139.5664  146.6947  161.8239 F       1  UNL1       -0.2302
@<TRIPOS>BOND
     1    20    21    1
     2    21    19    1
     3    19    17    1
     4    17    18    2
     5    17    16    1
     6    16    11    1
     7    11    12   ar
     8    12    13   ar
     9    13    14   ar
    10    14     7    1
    11     7     8   am
    12     8     9    2
    13     8     1    1
    14     1     2   ar
    15     2     3   ar
    16     3    25    1
    17    25    26    1
    18    26    27   ar
    19    27    28   ar
    20    28    29   ar
    21    29    32    1
    22    32    33    1
    23    32    34    2
    24    32    35    2
    25    29    30   ar
    26    30    31   ar
    27     3     4   ar
    28     4     5   ar
    29     5    36    1
    30    36    37    1
    31    37    38    1
    32    38    39    1
    33    37    40    1
    34    40    41    1
    35     5     6   ar
    36    14    15   ar
    37    17    22    1
    38    22    23    1
    39    23    24    1
    40    15    11   ar
    41     6     1   ar
    42    31    26   ar
    43     7    10    1
@<TRIPOS>MOLECULE
*****
 41 43 0 0 0
SMALL
GASTEIGER

@<TRIPOS>ATOM
      1 C         143.5619  139.7399  160.4235 C.ar    1  UNL1        0.0597
      2 C         143.5475  138.9347  161.6889 C.ar    1  UNL1        0.0422
      3 C         143.7723  139.6094  163.0096 C.ar    1  UNL1        0.1485
      4 C         144.0115  141.0891  163.0649 C.ar    1  UNL1        0.0743
      5 C         144.0259  141.8943  161.7994 C.ar    1  UNL1        0.1418
      6 C         143.8011  141.2196  160.4787 C.ar    1  UNL1        0.0416
      7 N         142.4830  137.8347  159.0248 N.am    1  UNL1       -0.2644
      8 C         143.3371  139.0652  159.1027 C.2     1  UNL1        0.2508
      9 O         143.9665  139.6213  157.8598 O.2     1  UNL1       -0.2698
     10 H         142.0699  137.4698  159.8405 H       1  UNL1        0.1566
     11 N         142.4658  135.6393  155.8239 N.ar    1  UNL1       -0.2357
     12 C         141.3588  136.6047  155.5192 C.ar    1  UNL1        0.0988
     13 C         141.2305  137.5446  156.6812 C.ar    1  UNL1        0.0565
     14 C         142.2582  137.1601  157.7040 C.ar    1  UNL1        0.1557
     15 N         143.0216  135.9826  157.1741 N.ar    1  UNL1       -0.1534
     16 C         142.9346  134.5262  154.9345 C.3     1  UNL1        0.2423
     17 P         142.8508  133.1043  155.4048 P.3     1  UNL1        0.3677
     18 O         142.7669  131.6825  155.8751 O.2     1  UNL1       -0.2557
     19 O         144.2244  133.2190  155.9964 O.3     1  UNL1       -0.2928
     20 C         145.4831  132.1309  157.9918 C.3     1  UNL1        0.0352
     21 C         144.8719  132.0215  156.6264 C.3     1  UNL1        0.1515
     22 O         141.4771  132.9897  154.8132 O.3     1  UNL1       -0.2928
     23 C         140.7796  131.6620  154.7882 C.3     1  UNL1        0.1515
     24 C         140.1942  131.1463  153.5070 C.3     1  UNL1        0.0352
     25 O         143.7579  138.8042  164.2752 O.3     1  UNL1       -0.4534
     26 C         142.8403  139.1883  165.3980 C.ar    1  UNL1        0.1454
     27 C         143.2961  139.0483  166.8203 C.ar    1  UNL1        0.0388
     28 C         142.3785  139.4323  167.9431 C.ar    1  UNL1        0.0215
     29 C         141.0053  139.9563  167.6436 C.ar    1  UNL1        0.1059
     30 C         140.5496  140.0963  166.2214 C.ar    1  UNL1        0.0215
     31 C         141.4671  139.7122  165.0986 C.ar    1  UNL1        0.0388
     32 S         140.0877  140.3404  168.7664 S.O2    1  UNL1        0.0105
     33 C         139.1702  140.7244  169.8891 C.3     1  UNL1        0.1816
     34 O         141.1757  141.1792  169.3685 O.2     1  UNL1       -0.1686
     35 O         138.9997  139.5015  168.1642 O.2     1  UNL1       -0.1686
     36 O         144.2651  143.3741  161.8546 O.3     1  UNL1       -0.4732
     37 C         143.3236  144.2580  162.6175 C.3     1  UNL1        0.2361
     38 C         141.8489  144.1889  162.3522 C.3     1  UNL1        0.2393
     39 F         141.0645  142.9858  162.7850 F       1  UNL1       -0.2302
     40 C         143.8568  145.2112  163.6458 C.3     1  UNL1        0.2393
     41 F         144.2246  144.7122  165.0116 F       1  UNL1       -0.2302
@<TRIPOS>BOND
     1    20    21    1
     2    21    19    1
     3    19    17    1
     4    17    18    2
     5    17    16    1
     6    16    11    1
     7    11    12   ar
     8    12    13   ar
     9    13    14   ar
    10    14     7    1
    11     7     8   am
    12     8     9    2
    13     8     1    1
    14     1     2   ar
    15     2     3   ar
    16     3    25    1
    17    25    26    1
    18    26    27   ar
    19    27    28   ar
    20    28    29   ar
    21    29    32    1
    22    32    33    1
    23    32    34    2
    24    32    35    2
    25    29    30   ar
    26    30    31   ar
    27     3     4   ar
    28     4     5   ar
    29     5    36    1
    30    36    37    1
    31    37    38    1
    32    38    39    1
    33    37    40    1
    34    40    41    1
    35     5     6   ar
    36    14    15   ar
    37    17    22    1
    38    22    23    1
    39    23    24    1
    40    15    11   ar
    41     6     1   ar
    42    31    26   ar
    43     7    10    1
@<TRIPOS>MOLECULE
*****
 41 43 0 0 0
SMALL
GASTEIGER

@<TRIPOS>ATOM
      1 C         143.3336  140.9195  159.9144 C.ar    1  UNL1        0.0597
      2 C         144.0824  140.6901  161.1937 C.ar    1  UNL1        0.0422
      3 C         144.0441  141.7231  162.2807 C.ar    1  UNL1        0.1485
      4 C         143.2570  142.9854  162.0883 C.ar    1  UNL1        0.0743
      5 C         142.5082  143.2148  160.8090 C.ar    1  UNL1        0.1418
      6 C         142.5465  142.1818  159.7221 C.ar    1  UNL1        0.0416
      7 N         142.2866  138.8553  158.7341 N.am    1  UNL1       -0.2644
      8 C         143.3719  139.8865  158.8274 C.2     1  UNL1        0.2508
      9 O         144.4956  139.8847  157.8338 O.2     1  UNL1       -0.2698
     10 H         141.5491  138.8565  159.3863 H       1  UNL1        0.1566
     11 N         142.9203  135.8625  156.3452 N.ar    1  UNL1       -0.2357
     12 C         141.8472  136.6031  155.6036 C.ar    1  UNL1        0.0988
     13 C         141.4791  137.8144  156.4083 C.ar    1  UNL1        0.0565
     14 C         142.3249  137.8223  157.6471 C.ar    1  UNL1        0.1557
     15 N         143.2155  136.6160  157.6081 N.ar    1  UNL1       -0.1534
     16 C         143.5820  134.5916  155.9017 C.3     1  UNL1        0.2423
     17 P         142.8052  133.3084  155.8830 P.3     1  UNL1        0.3677
     18 O         142.0285  132.0254  155.8643 O.2     1  UNL1       -0.2557
     19 O         142.6041  133.4518  154.4034 O.3     1  UNL1       -0.2928
     20 C         141.0739  133.2437  152.3142 C.3     1  UNL1        0.0352
     21 C         141.2517  133.2054  153.8031 C.3     1  UNL1        0.1515
     22 O         143.0064  133.1651  157.3625 O.3     1  UNL1       -0.2928
     23 C         144.3940  133.1388  157.9317 C.3     1  UNL1        0.1515
     24 C         145.1839  131.8636  157.9236 C.3     1  UNL1        0.0352
     25 O         144.7929  141.4938  163.5600 O.3     1  UNL1       -0.4534
     26 C         144.0468  141.1437  164.8133 C.ar    1  UNL1        0.1454
     27 C         143.7706  139.7072  165.1452 C.ar    1  UNL1        0.0388
     28 C         143.0244  139.3571  166.3985 C.ar    1  UNL1        0.0215
     29 C         142.5546  140.4436  167.3199 C.ar    1  UNL1        0.1059
     30 C         142.8308  141.8801  166.9880 C.ar    1  UNL1        0.0215
     31 C         143.5770  142.2301  165.7347 C.ar    1  UNL1        0.0388
     32 S         141.8084  140.0935  168.5732 S.O2    1  UNL1        0.0105
     33 C         141.0623  139.7435  169.8265 C.3     1  UNL1        0.1816
     34 O         140.7464  141.0921  168.2198 O.2     1  UNL1       -0.1686
     35 O         142.8705  139.0950  168.9266 O.2     1  UNL1       -0.1686
     36 O         141.7211  144.4771  160.6166 O.3     1  UNL1       -0.4732
     37 C         140.4145  144.6622  161.3296 C.3     1  UNL1        0.2361
     38 C         139.4155  143.5439  161.3672 C.3     1  UNL1        0.2393
     39 F         139.2255  142.6672  160.1650 F       1  UNL1       -0.2302
     40 C         140.1068  145.9658  162.0051 C.3     1  UNL1        0.2393
     41 F         139.1932  146.9553  161.3448 F       1  UNL1       -0.2302
@<TRIPOS>BOND
     1    20    21    1
     2    21    19    1
     3    19    17    1
     4    17    18    2
     5    17    16    1
     6    16    11    1
     7    11    12   ar
     8    12    13   ar
     9    13    14   ar
    10    14     7    1
    11     7     8   am
    12     8     9    2
    13     8     1    1
    14     1     2   ar
    15     2     3   ar
    16     3    25    1
    17    25    26    1
    18    26    27   ar
    19    27    28   ar
    20    28    29   ar
    21    29    32    1
    22    32    33    1
    23    32    34    2
    24    32    35    2
    25    29    30   ar
    26    30    31   ar
    27     3     4   ar
    28     4     5   ar
    29     5    36    1
    30    36    37    1
    31    37    38    1
    32    38    39    1
    33    37    40    1
    34    40    41    1
    35     5     6   ar
    36    14    15   ar
    37    17    22    1
    38    22    23    1
    39    23    24    1
    40    15    11   ar
    41     6     1   ar
    42    31    26   ar
    43     7    10    1
@<TRIPOS>MOLECULE
*****
 41 43 0 0 0
SMALL
GASTEIGER

@<TRIPOS>ATOM
      1 C         141.9143  139.5649  161.1417 C.ar    1  UNL1        0.0597
      2 C         141.2829  138.8409  162.2937 C.ar    1  UNL1        0.0422
      3 C         140.6039  139.6149  163.3845 C.ar    1  UNL1        0.1485
      4 C         140.5562  141.1129  163.3232 C.ar    1  UNL1        0.0743
      5 C         141.1876  141.8369  162.1713 C.ar    1  UNL1        0.1418
      6 C         141.8667  141.0629  161.0805 C.ar    1  UNL1        0.0416
      7 N         141.9366  138.6514  158.7096 N.am    1  UNL1       -0.2644
      8 C         142.5934  138.7909  160.0509 C.2     1  UNL1        0.2508
      9 O         143.9293  138.1565  160.3014 O.2     1  UNL1       -0.2698
     10 H         141.0597  139.0678  158.5452 H       1  UNL1        0.1566
     11 N         143.4862  136.0447  156.2869 N.ar    1  UNL1       -0.2357
     12 C         143.8351  137.3283  155.5934 C.ar    1  UNL1        0.0988
     13 C         143.2970  138.4610  156.4166 C.ar    1  UNL1        0.0565
     14 C         142.6157  137.8774  157.6188 C.ar    1  UNL1        0.1557
     15 N         142.7326  136.3842  157.5387 N.ar    1  UNL1       -0.1534
     16 C         143.8305  134.6642  155.8121 C.3     1  UNL1        0.2423
     17 P         143.1549  133.4713  156.4209 P.3     1  UNL1        0.3677
     18 O         142.4793  132.2785  157.0296 O.2     1  UNL1       -0.2557
     19 O         144.3514  133.2399  157.2954 O.3     1  UNL1       -0.2928
     20 C         145.0130  131.1015  155.9765 C.3     1  UNL1        0.0352
     21 C         145.0981  131.9413  157.2165 C.3     1  UNL1        0.1515
     22 O         141.9584  133.7028  155.5464 O.3     1  UNL1       -0.2928
     23 C         141.4480  132.6004  154.6664 C.3     1  UNL1        0.1515
     24 C         142.2187  132.1990  153.4438 C.3     1  UNL1        0.0352
     25 O         139.9724  138.8909  164.5365 O.3     1  UNL1       -0.4534
     26 C         140.2357  139.3439  165.9420 C.ar    1  UNL1        0.1454
     27 C         141.6456  139.4626  166.4401 C.ar    1  UNL1        0.0388
     28 C         141.9089  139.9157  167.8456 C.ar    1  UNL1        0.0215
     29 C         140.7622  140.2500  168.7531 C.ar    1  UNL1        0.1059
     30 C         139.3523  140.1313  168.2550 C.ar    1  UNL1        0.0215
     31 C         139.0891  139.6782  166.8495 C.ar    1  UNL1        0.0388
     32 S         141.0254  140.7030  170.1586 S.O2    1  UNL1        0.0105
     33 C         141.2887  141.1560  171.5641 C.3     1  UNL1        0.1816
     34 O         140.4241  139.4320  170.6809 O.2     1  UNL1       -0.1686
     35 O         141.6268  141.9740  169.6362 O.2     1  UNL1       -0.1686
     36 O         141.1400  143.3349  162.1101 O.3     1  UNL1       -0.4732
     37 C         140.0790  144.0191  161.3000 C.3     1  UNL1        0.2361
     38 C         140.2560  145.4506  160.8885 C.3     1  UNL1        0.2393
     39 F         139.5468  146.5395  161.6379 F       1  UNL1       -0.2302
     40 C         138.8410  143.2716  160.9014 C.3     1  UNL1        0.2393
     41 F         137.7539  143.0311  161.9065 F       1  UNL1       -0.2302
@<TRIPOS>BOND
     1    20    21    1
     2    21    19    1
     3    19    17    1
     4    17    18    2
     5    17    16    1
     6    16    11    1
     7    11    12   ar
     8    12    13   ar
     9    13    14   ar
    10    14     7    1
    11     7     8   am
    12     8     9    2
    13     8     1    1
    14     1     2   ar
    15     2     3   ar
    16     3    25    1
    17    25    26    1
    18    26    27   ar
    19    27    28   ar
    20    28    29   ar
    21    29    32    1
    22    32    33    1
    23    32    34    2
    24    32    35    2
    25    29    30   ar
    26    30    31   ar
    27     3     4   ar
    28     4     5   ar
    29     5    36    1
    30    36    37    1
    31    37    38    1
    32    38    39    1
    33    37    40    1
    34    40    41    1
    35     5     6   ar
    36    14    15   ar
    37    17    22    1
    38    22    23    1
    39    23    24    1
    40    15    11   ar
    41     6     1   ar
    42    31    26   ar
    43     7    10    1
@<TRIPOS>MOLECULE
*****
 41 43 0 0 0
SMALL
GASTEIGER

@<TRIPOS>ATOM
      1 C         141.6026  137.8619  157.6808 C.ar    1  UNL1        0.0597
      2 C         142.5794  136.8945  157.0809 C.ar    1  UNL1        0.0422
      3 C         142.1431  135.9742  155.9797 C.ar    1  UNL1        0.1485
      4 C         140.7302  136.0214  155.4784 C.ar    1  UNL1        0.0743
      5 C         139.7534  136.9888  156.0783 C.ar    1  UNL1        0.1418
      6 C         140.1896  137.9091  157.1795 C.ar    1  UNL1        0.0416
      7 N         143.4794  139.1836  158.8977 N.am    1  UNL1       -0.2644
      8 C         142.0388  138.7823  158.7821 C.2     1  UNL1        0.2508
      9 O         141.0342  139.3012  159.7678 O.2     1  UNL1       -0.2698
     10 H         144.1387  138.8430  158.2507 H       1  UNL1        0.1566
     11 N         144.6383  140.9362  162.1613 N.ar    1  UNL1       -0.2357
     12 C         144.5353  142.1043  161.2259 C.ar    1  UNL1        0.0988
     13 C         144.0886  141.5899  159.8894 C.ar    1  UNL1        0.0565
     14 C         143.9156  140.1040  159.9990 C.ar    1  UNL1        0.1557
     15 N         144.2553  139.6999  161.4030 N.ar    1  UNL1       -0.1534
     16 C         145.0517  140.9941  163.6020 C.3     1  UNL1        0.2423
     17 P         144.1289  141.5895  164.6238 P.3     1  UNL1        0.3677
     18 O         143.2062  142.1849  165.6455 O.2     1  UNL1       -0.2557
     19 O         143.4132  140.2766  164.7425 O.3     1  UNL1       -0.2928
     20 C         143.6968  138.2162  166.2994 C.3     1  UNL1        0.0352
     21 C         144.1691  139.0438  165.1410 C.3     1  UNL1        0.1515
     22 O         144.8446  142.9024  164.5050 O.3     1  UNL1       -0.2928
     23 C         144.0870  144.1869  164.6663 C.3     1  UNL1        0.1515
     24 C         143.7592  145.0205  163.4631 C.3     1  UNL1        0.0352
     25 O         143.1199  135.0067  155.3797 O.3     1  UNL1       -0.4534
     26 C         143.2251  133.6128  155.9236 C.ar    1  UNL1        0.1454
     27 C         144.2929  133.2758  156.9218 C.ar    1  UNL1        0.0388
     28 C         144.3981  131.8819  157.4658 C.ar    1  UNL1        0.0215
     29 C         143.4355  130.8249  157.0115 C.ar    1  UNL1        0.1059
     30 C         142.3678  131.1619  156.0134 C.ar    1  UNL1        0.0215
     31 C         142.2626  132.5558  155.4694 C.ar    1  UNL1        0.0388
     32 S         143.5407  129.4310  157.5555 S.O2    1  UNL1        0.0105
     33 C         143.6459  128.0371  158.0994 C.3     1  UNL1        0.1816
     34 O         142.5594  128.9551  156.5256 O.2     1  UNL1       -0.1686
     35 O         144.5220  129.9069  158.5853 O.2     1  UNL1       -0.1686
     36 O         138.3404  137.0359  155.5770 O.3     1  UNL1       -0.4732
     37 C         138.0123  137.8019  154.3298 C.3     1  UNL1        0.2361
     38 C         136.6898  137.5997  153.6516 C.3     1  UNL1        0.2393
     39 F         136.5336  136.5236  152.6182 F       1  UNL1       -0.2302
     40 C         139.0067  138.7702  153.7608 C.3     1  UNL1        0.2393
     41 F         139.4143  139.9780  154.5512 F       1  UNL1       -0.2302
@<TRIPOS>BOND
     1    20    21    1
     2    21    19    1
     3    19    17    1
     4    17    18    2
     5    17    16    1
     6    16    11    1
     7    11    12   ar
     8    12    13   ar
     9    13    14   ar
    10    14     7    1
    11     7     8   am
    12     8     9    2
    13     8     1    1
    14     1     2   ar
    15     2     3   ar
    16     3    25    1
    17    25    26    1
    18    26    27   ar
    19    27    28   ar
    20    28    29   ar
    21    29    32    1
    22    32    33    1
    23    32    34    2
    24    32    35    2
    25    29    30   ar
    26    30    31   ar
    27     3     4   ar
    28     4     5   ar
    29     5    36    1
    30    36    37    1
    31    37    38    1
    32    38    39    1
    33    37    40    1
    34    40    41    1
    35     5     6   ar
    36    14    15   ar
    37    17    22    1
    38    22    23    1
    39    23    24    1
    40    15    11   ar
    41     6     1   ar
    42    31    26   ar
    43     7    10    1
@<TRIPOS>MOLECULE
*****
 41 43 0 0 0
SMALL
GASTEIGER

@<TRIPOS>ATOM
      1 C         137.7050  141.6862  157.5591 C.ar    1  UNL1        0.0597
      2 C         136.6534  140.9367  156.7960 C.ar    1  UNL1        0.0422
      3 C         136.0441  141.5426  155.5665 C.ar    1  UNL1        0.1485
      4 C         136.4864  142.8979  155.1001 C.ar    1  UNL1        0.0743
      5 C         137.5380  143.6473  155.8632 C.ar    1  UNL1        0.1418
      6 C         138.1473  143.0415  157.0927 C.ar    1  UNL1        0.0416
      7 N         137.6626  139.8995  159.4448 N.am    1  UNL1       -0.2644
      8 C         138.3144  141.0804  158.7886 C.2     1  UNL1        0.2508
      9 O         139.5755  141.6556  159.3620 O.2     1  UNL1       -0.2698
     10 H         136.8349  139.5220  159.0685 H       1  UNL1        0.1566
     11 N         138.7163  138.7313  162.9932 N.ar    1  UNL1       -0.2357
     12 C         139.7033  137.9915  162.1395 C.ar    1  UNL1        0.0988
     13 C         139.4287  138.3391  160.7063 C.ar    1  UNL1        0.0565
     14 C         138.2720  139.2937  160.6743 C.ar    1  UNL1        0.1557
     15 N         137.8317  139.5360  162.0876 N.ar    1  UNL1       -0.1534
     16 C         138.6291  138.6759  164.4895 C.3     1  UNL1        0.2423
     17 P         139.3251  139.7130  165.3203 P.3     1  UNL1        0.3677
     18 O         140.0211  140.7500  166.1510 O.2     1  UNL1       -0.2557
     19 O         140.4586  138.7603  165.5601 O.3     1  UNL1       -0.2928
     20 C         143.0118  138.3086  165.7255 C.3     1  UNL1        0.0352
     21 C         141.8738  139.2095  165.3467 C.3     1  UNL1        0.1515
     22 O         138.1916  140.6657  165.0805 O.3     1  UNL1       -0.2928
     23 C         138.4756  142.0980  164.7370 C.3     1  UNL1        0.1515
     24 C         137.6105  142.8171  163.7448 C.3     1  UNL1        0.0352
     25 O         134.9924  140.7931  154.8034 O.3     1  UNL1       -0.4534
     26 C         133.7047  140.4160  155.4741 C.ar    1  UNL1        0.1454
     27 C         132.5131  141.3214  155.3727 C.ar    1  UNL1        0.0388
     28 C         131.2254  140.9444  156.0433 C.ar    1  UNL1        0.0215
     29 C         131.1295  139.6618  156.8154 C.ar    1  UNL1        0.1059
     30 C         132.3211  138.7565  156.9167 C.ar    1  UNL1        0.0215
     31 C         133.6087  139.1335  156.2461 C.ar    1  UNL1        0.0388
     32 S         129.8418  139.2847  157.4860 S.O2    1  UNL1        0.0105
     33 C         128.5542  138.9077  158.1567 C.3     1  UNL1        0.1816
     34 O         129.0891  140.1728  156.5401 O.2     1  UNL1       -0.1686
     35 O         130.5945  138.3967  158.4319 O.2     1  UNL1       -0.1686
     36 O         137.9803  145.0026  155.3968 O.3     1  UNL1       -0.4732
     37 C         139.3975  145.4443  155.6121 C.3     1  UNL1        0.2361
     38 C         139.7036  146.5247  156.6066 C.3     1  UNL1        0.2393
     39 F         139.9828  146.1701  158.0371 F       1  UNL1       -0.2302
     40 C         140.5088  144.8055  154.8328 C.3     1  UNL1        0.2393
     41 F         140.8806  143.3756  155.0915 F       1  UNL1       -0.2302
@<TRIPOS>BOND
     1    20    21    1
     2    21    19    1
     3    19    17    1
     4    17    18    2
     5    17    16    1
     6    16    11    1
     7    11    12   ar
     8    12    13   ar
     9    13    14   ar
    10    14     7    1
    11     7     8   am
    12     8     9    2
    13     8     1    1
    14     1     2   ar
    15     2     3   ar
    16     3    25    1
    17    25    26    1
    18    26    27   ar
    19    27    28   ar
    20    28    29   ar
    21    29    32    1
    22    32    33    1
    23    32    34    2
    24    32    35    2
    25    29    30   ar
    26    30    31   ar
    27     3     4   ar
    28     4     5   ar
    29     5    36    1
    30    36    37    1
    31    37    38    1
    32    38    39    1
    33    37    40    1
    34    40    41    1
    35     5     6   ar
    36    14    15   ar
    37    17    22    1
    38    22    23    1
    39    23    24    1
    40    15    11   ar
    41     6     1   ar
    42    31    26   ar
    43     7    10    1
