@<TRIPOS>MOLECULE
*****
 26 28 0 0 0
SMALL
GASTEIGER

@<TRIPOS>ATOM
      1 C         138.1263  138.1113  162.3036 C.3     1  UNL1        0.0684
      2 C         138.0147  141.9778  161.9818 C.ar    1  UNL1        0.0538
      3 C         138.3075  141.5775  160.5661 C.ar    1  UNL1        0.1126
      4 N         138.3849  140.0803  160.5144 N.ar    1  UNL1       -0.2299
      5 C         138.1400  139.5554  161.8981 C.ar    1  UNL1        0.1172
      6 N         137.9112  140.7281  162.8050 N.ar    1  UNL1       -0.3440
      7 H         137.7257  140.6851  163.7709 H       1  UNL1        0.1668
      8 C         137.8537  143.3813  162.4858 C.3     1  UNL1        0.0452
      9 C         138.8076  143.9254  163.5077 C.3     1  UNL1        0.0055
     10 C         137.7972  143.6703  164.5867 C.3     1  UNL1        0.0004
     11 C         139.8179  144.1805  162.4286 C.3     1  UNL1        0.0004
     12 C         140.8528  143.5976  165.0759 C.3     1  UNL1        0.0000
     13 C         139.7614  144.4695  164.5295 C.3     1  UNL1        0.0004
     14 C         139.1422  137.5968  163.2799 C.3     1  UNL1        0.0343
     15 C         139.3989  138.3406  164.5571 C.ar    1  UNL1       -0.0217
     16 C         138.3536  138.3672  165.6326 C.ar    1  UNL1       -0.0042
     17 C         138.6103  139.1109  166.9096 C.ar    1  UNL1        0.0012
     18 C         139.9123  139.8280  167.1112 C.ar    1  UNL1        0.0176
     19 C         140.9576  139.8013  166.0358 C.ar    1  UNL1        0.0012
     20 C         140.7009  139.0576  164.7587 C.ar    1  UNL1       -0.0042
     21 C         140.1690  140.5717  168.3884 C.ar    1  UNL1        0.0813
     22 C         140.3457  142.0611  168.3664 C.ar    1  UNL1        0.0191
     23 C         140.6024  142.8048  169.6436 C.ar    1  UNL1        0.0031
     24 C         140.6824  142.0591  170.9426 C.ar    1  UNL1        0.0207
     25 C         140.5056  140.5697  170.9645 C.ar    1  UNL1        0.0988
     26 N         140.2490  139.8260  169.6874 N.ar    1  UNL1       -0.2438
@<TRIPOS>BOND
     1    12    13    1
     2    13     9    1
     3     9    10    1
     4     9    11    1
     5     9     8    1
     6     8     2    1
     7     2     3   ar
     8     3     4   ar
     9     4     5   ar
    10     5     1    1
    11     1    14    1
    12    14    15    1
    13    15    16   ar
    14    16    17   ar
    15    17    18   ar
    16    18    21    1
    17    21    22   ar
    18    22    23   ar
    19    23    24   ar
    20    24    25   ar
    21    25    26   ar
    22    18    19   ar
    23    19    20   ar
    24     5     6   ar
    25     6     2   ar
    26    20    15   ar
    27    26    21   ar
    28     6     7    1
@<TRIPOS>MOLECULE
*****
 26 28 0 0 0
SMALL
GASTEIGER

@<TRIPOS>ATOM
      1 C         143.9249  138.3698  162.2516 C.3     1  UNL1        0.0684
      2 C         140.0613  138.1243  162.5311 C.ar    1  UNL1        0.0538
      3 C         140.2363  138.2646  161.0479 C.ar    1  UNL1        0.1126
      4 N         141.7049  138.3736  160.7627 N.ar    1  UNL1       -0.2299
      5 C         142.4375  138.3007  162.0696 C.ar    1  UNL1        0.1172
      6 N         141.4218  138.1466  163.1625 N.ar    1  UNL1       -0.3440
      7 H         141.6142  138.0731  164.1252 H       1  UNL1        0.1668
      8 C         138.7553  137.9860  163.2556 C.3     1  UNL1        0.0452
      9 C         138.5443  138.6909  164.5627 C.3     1  UNL1        0.0055
     10 C         138.3127  139.9794  163.8305 C.3     1  UNL1        0.0004
     11 C         138.7758  137.4023  165.2949 C.3     1  UNL1        0.0004
     12 C         137.7495  138.6545  167.0359 C.3     1  UNL1        0.0000
     13 C         138.3333  139.3958  165.8698 C.3     1  UNL1        0.0004
     14 C         144.5152  139.3241  163.2469 C.3     1  UNL1        0.0343
     15 C         143.7054  139.7729  164.4272 C.ar    1  UNL1       -0.0217
     16 C         143.5989  138.8971  165.6403 C.ar    1  UNL1       -0.0042
     17 C         142.7891  139.3459  166.8205 C.ar    1  UNL1        0.0012
     18 C         142.0858  140.6704  166.7875 C.ar    1  UNL1        0.0176
     19 C         142.1923  141.5462  165.5744 C.ar    1  UNL1        0.0012
     20 C         143.0021  141.0974  164.3942 C.ar    1  UNL1       -0.0042
     21 C         141.2760  141.1192  167.9677 C.ar    1  UNL1        0.0813
     22 C         141.1783  142.5789  168.2989 C.ar    1  UNL1        0.0191
     23 C         140.3684  143.0276  169.4791 C.ar    1  UNL1        0.0031
     24 C         139.6564  142.0166  170.3281 C.ar    1  UNL1        0.0207
     25 C         139.7542  140.5569  169.9969 C.ar    1  UNL1        0.0988
     26 N         140.5639  140.1082  168.8168 N.ar    1  UNL1       -0.2438
@<TRIPOS>BOND
     1    12    13    1
     2    13     9    1
     3     9    10    1
     4     9    11    1
     5     9     8    1
     6     8     2    1
     7     2     3   ar
     8     3     4   ar
     9     4     5   ar
    10     5     1    1
    11     1    14    1
    12    14    15    1
    13    15    16   ar
    14    16    17   ar
    15    17    18   ar
    16    18    21    1
    17    21    22   ar
    18    22    23   ar
    19    23    24   ar
    20    24    25   ar
    21    25    26   ar
    22    18    19   ar
    23    19    20   ar
    24     5     6   ar
    25     6     2   ar
    26    20    15   ar
    27    26    21   ar
    28     6     7    1
@<TRIPOS>MOLECULE
*****
 26 28 0 0 0
SMALL
GASTEIGER

@<TRIPOS>ATOM
      1 C         144.3913  143.9169  162.6180 C.3     1  UNL1        0.0684
      2 C         140.6293  144.8337  162.3496 C.ar    1  UNL1        0.0538
      3 C         141.0316  144.8343  160.9045 C.ar    1  UNL1        0.1126
      4 N         142.4899  144.4909  160.8292 N.ar    1  UNL1       -0.2299
      5 C         142.9887  144.2781  162.2277 C.ar    1  UNL1        0.1172
      6 N         141.8389  144.4900  163.1673 N.ar    1  UNL1       -0.3440
      7 H         141.8722  144.4163  164.1485 H       1  UNL1        0.1668
      8 C         139.2582  145.1256  162.8832 C.3     1  UNL1        0.0452
      9 C         138.5436  144.1023  163.7153 C.3     1  UNL1        0.0055
     10 C         138.8776  144.8774  164.9553 C.3     1  UNL1        0.0004
     11 C         138.2096  143.3272  162.4752 C.3     1  UNL1        0.0004
     12 C         138.1597  141.6240  164.3939 C.3     1  UNL1        0.0000
     13 C         137.8290  143.0791  164.5473 C.3     1  UNL1        0.0004
     14 C         144.6732  142.5910  163.2603 C.3     1  UNL1        0.0343
     15 C         143.9182  142.1770  164.4886 C.ar    1  UNL1       -0.0217
     16 C         144.0504  142.9719  165.7537 C.ar    1  UNL1       -0.0042
     17 C         143.2954  142.5578  166.9819 C.ar    1  UNL1        0.0012
     18 C         142.4083  141.3489  166.9450 C.ar    1  UNL1        0.0176
     19 C         142.2761  140.5539  165.6798 C.ar    1  UNL1        0.0012
     20 C         143.0311  140.9680  164.4516 C.ar    1  UNL1       -0.0042
     21 C         141.6533  140.9348  168.1733 C.ar    1  UNL1        0.0813
     22 C         140.1649  140.7585  168.1149 C.ar    1  UNL1        0.0191
     23 C         139.4099  140.3444  169.3432 C.ar    1  UNL1        0.0031
     24 C         140.1434  140.1067  170.6298 C.ar    1  UNL1        0.0207
     25 C         141.6319  140.2831  170.6882 C.ar    1  UNL1        0.0988
     26 N         142.3868  140.6971  169.4599 N.ar    1  UNL1       -0.2438
@<TRIPOS>BOND
     1    12    13    1
     2    13     9    1
     3     9    10    1
     4     9    11    1
     5     9     8    1
     6     8     2    1
     7     2     3   ar
     8     3     4   ar
     9     4     5   ar
    10     5     1    1
    11     1    14    1
    12    14    15    1
    13    15    16   ar
    14    16    17   ar
    15    17    18   ar
    16    18    21    1
    17    21    22   ar
    18    22    23   ar
    19    23    24   ar
    20    24    25   ar
    21    25    26   ar
    22    18    19   ar
    23    19    20   ar
    24     5     6   ar
    25     6     2   ar
    26    20    15   ar
    27    26    21   ar
    28     6     7    1
@<TRIPOS>MOLECULE
*****
 26 28 0 0 0
SMALL
GASTEIGER

@<TRIPOS>ATOM
      1 C         143.2250  138.7191  162.2132 C.3     1  UNL1        0.0684
      2 C         139.4040  139.0436  162.8138 C.ar    1  UNL1        0.0538
      3 C         139.5853  137.5569  162.8974 C.ar    1  UNL1        0.1126
      4 N         141.0388  137.2544  162.6825 N.ar    1  UNL1       -0.2299
      5 C         141.7556  138.5541  162.4662 C.ar    1  UNL1        0.1172
      6 N         140.7453  139.6599  162.5473 N.ar    1  UNL1       -0.3440
      7 H         140.9302  140.6213  162.4438 H       1  UNL1        0.1668
      8 C         138.1089  139.7839  162.9694 C.3     1  UNL1        0.0452
      9 C         138.0586  141.0455  163.7793 C.3     1  UNL1        0.0055
     10 C         137.8400  141.8411  162.5267 C.3     1  UNL1        0.0004
     11 C         138.2772  140.2498  165.0320 C.3     1  UNL1        0.0004
     12 C         139.2743  142.9002  165.1328 C.3     1  UNL1        0.0000
     13 C         138.0083  142.3070  164.5893 C.3     1  UNL1        0.0004
     14 C         144.1435  139.0871  163.3405 C.3     1  UNL1        0.0343
     15 C         143.5772  139.5845  164.6374 C.ar    1  UNL1       -0.0217
     16 C         143.3668  138.6332  165.7778 C.ar    1  UNL1       -0.0042
     17 C         142.8006  139.1306  167.0747 C.ar    1  UNL1        0.0012
     18 C         142.4448  140.5794  167.2311 C.ar    1  UNL1        0.0176
     19 C         142.6553  141.5307  166.0907 C.ar    1  UNL1        0.0012
     20 C         143.2215  141.0333  164.7939 C.ar    1  UNL1       -0.0042
     21 C         141.8786  141.0768  168.5281 C.ar    1  UNL1        0.0813
     22 C         140.7859  142.1044  168.5244 C.ar    1  UNL1        0.0191
     23 C         140.2196  142.6019  169.8213 C.ar    1  UNL1        0.0031
     24 C         140.7462  142.0717  171.1220 C.ar    1  UNL1        0.0207
     25 C         141.8389  141.0440  171.1256 C.ar    1  UNL1        0.0988
     26 N         142.4051  140.5466  169.8287 N.ar    1  UNL1       -0.2438
@<TRIPOS>BOND
     1    12    13    1
     2    13     9    1
     3     9    10    1
     4     9    11    1
     5     9     8    1
     6     8     2    1
     7     2     3   ar
     8     3     4   ar
     9     4     5   ar
    10     5     1    1
    11     1    14    1
    12    14    15    1
    13    15    16   ar
    14    16    17   ar
    15    17    18   ar
    16    18    21    1
    17    21    22   ar
    18    22    23   ar
    19    23    24   ar
    20    24    25   ar
    21    25    26   ar
    22    18    19   ar
    23    19    20   ar
    24     5     6   ar
    25     6     2   ar
    26    20    15   ar
    27    26    21   ar
    28     6     7    1
@<TRIPOS>MOLECULE
*****
 26 28 0 0 0
SMALL
GASTEIGER

@<TRIPOS>ATOM
      1 C         144.1511  144.3563  163.2598 C.3     1  UNL1        0.0684
      2 C         140.3739  144.8397  162.5083 C.ar    1  UNL1        0.0538
      3 C         140.9449  144.8187  161.1214 C.ar    1  UNL1        0.1126
      4 N         142.4295  144.6350  161.2341 N.ar    1  UNL1       -0.2299
      5 C         142.7757  144.5425  162.6907 C.ar    1  UNL1        0.1172
      6 N         141.5054  144.6690  163.4781 N.ar    1  UNL1       -0.3440
      7 H         141.4278  144.6443  164.4593 H       1  UNL1        0.1668
      8 C         138.9256  145.0027  162.8631 C.3     1  UNL1        0.0452
      9 C         138.2002  143.9020  163.5789 C.3     1  UNL1        0.0055
     10 C         138.3992  144.6181  164.8818 C.3     1  UNL1        0.0004
     11 C         138.0012  143.1859  162.2759 C.3     1  UNL1        0.0004
     12 C         137.6264  141.3813  163.8362 C.3     1  UNL1        0.0000
     13 C         137.4748  142.8014  164.2946 C.3     1  UNL1        0.0004
     14 C         144.4210  143.2331  164.2167 C.3     1  UNL1        0.0343
     15 C         143.3156  142.2964  164.6047 C.ar    1  UNL1       -0.0217
     16 C         142.9790  141.1284  163.7257 C.ar    1  UNL1       -0.0042
     17 C         141.8736  140.1917  164.1138 C.ar    1  UNL1        0.0012
     18 C         141.1048  140.4229  165.3808 C.ar    1  UNL1        0.0176
     19 C         141.4413  141.5909  166.2598 C.ar    1  UNL1        0.0012
     20 C         142.5467  142.5276  165.8717 C.ar    1  UNL1       -0.0042
     21 C         139.9993  139.4862  165.7688 C.ar    1  UNL1        0.0813
     22 C         139.8105  138.1988  165.0225 C.ar    1  UNL1        0.0191
     23 C         138.7051  137.2621  165.4105 C.ar    1  UNL1        0.0031
     24 C         137.7885  137.6127  166.5449 C.ar    1  UNL1        0.0207
     25 C         137.9773  138.9001  167.2913 C.ar    1  UNL1        0.0988
     26 N         139.0827  139.8368  166.9033 N.ar    1  UNL1       -0.2438
@<TRIPOS>BOND
     1    12    13    1
     2    13     9    1
     3     9    10    1
     4     9    11    1
     5     9     8    1
     6     8     2    1
     7     2     3   ar
     8     3     4   ar
     9     4     5   ar
    10     5     1    1
    11     1    14    1
    12    14    15    1
    13    15    16   ar
    14    16    17   ar
    15    17    18   ar
    16    18    21    1
    17    21    22   ar
    18    22    23   ar
    19    23    24   ar
    20    24    25   ar
    21    25    26   ar
    22    18    19   ar
    23    19    20   ar
    24     5     6   ar
    25     6     2   ar
    26    20    15   ar
    27    26    21   ar
    28     6     7    1
@<TRIPOS>MOLECULE
*****
 26 28 0 0 0
SMALL
GASTEIGER

@<TRIPOS>ATOM
      1 C         138.3634  138.3803  162.3679 C.3     1  UNL1        0.0684
      2 C         139.1912  142.1611  162.6611 C.ar    1  UNL1        0.0538
      3 C         137.8684  142.2079  161.9553 C.ar    1  UNL1        0.1126
      4 N         137.3973  140.7972  161.7596 N.ar    1  UNL1       -0.2299
      5 C         138.4290  139.8787  162.3444 C.ar    1  UNL1        0.1172
      6 N         139.5376  140.7216  162.9016 N.ar    1  UNL1       -0.3440
      7 H         140.3500  140.3885  163.3469 H       1  UNL1        0.1668
      8 C         140.0217  143.3457  163.0569 C.3     1  UNL1        0.0452
      9 C         141.0070  143.2289  164.1820 C.3     1  UNL1        0.0055
     10 C         142.1212  143.0724  163.1900 C.3     1  UNL1        0.0004
     11 C         139.8927  143.3854  165.1739 C.3     1  UNL1        0.0004
     12 C         143.2107  142.2514  165.1505 C.3     1  UNL1        0.0000
     13 C         141.9921  143.1120  165.3070 C.3     1  UNL1        0.0004
     14 C         138.8905  137.6250  163.5519 C.3     1  UNL1        0.0343
     15 C         139.2382  138.3569  164.8142 C.ar    1  UNL1       -0.0217
     16 C         140.6603  138.7481  165.0869 C.ar    1  UNL1       -0.0042
     17 C         141.0080  139.4799  166.3493 C.ar    1  UNL1        0.0012
     18 C         139.9335  139.8206  167.3389 C.ar    1  UNL1        0.0176
     19 C         138.5113  139.4294  167.0662 C.ar    1  UNL1        0.0012
     20 C         138.1637  138.6976  165.8039 C.ar    1  UNL1       -0.0042
     21 C         140.2812  140.5524  168.6013 C.ar    1  UNL1        0.0813
     22 C         140.4733  142.0399  168.5772 C.ar    1  UNL1        0.0191
     23 C         140.8210  142.7718  169.8396 C.ar    1  UNL1        0.0031
     24 C         140.9766  142.0161  171.1260 C.ar    1  UNL1        0.0207
     25 C         140.7844  140.5286  171.1500 C.ar    1  UNL1        0.0988
     26 N         140.4368  139.7968  169.8877 N.ar    1  UNL1       -0.2438
@<TRIPOS>BOND
     1    12    13    1
     2    13     9    1
     3     9    10    1
     4     9    11    1
     5     9     8    1
     6     8     2    1
     7     2     3   ar
     8     3     4   ar
     9     4     5   ar
    10     5     1    1
    11     1    14    1
    12    14    15    1
    13    15    16   ar
    14    16    17   ar
    15    17    18   ar
    16    18    21    1
    17    21    22   ar
    18    22    23   ar
    19    23    24   ar
    20    24    25   ar
    21    25    26   ar
    22    18    19   ar
    23    19    20   ar
    24     5     6   ar
    25     6     2   ar
    26    20    15   ar
    27    26    21   ar
    28     6     7    1
@<TRIPOS>MOLECULE
*****
 26 28 0 0 0
SMALL
GASTEIGER

@<TRIPOS>ATOM
      1 C         137.8829  141.8955  161.9260 C.3     1  UNL1        0.0684
      2 C         140.0493  138.6766  162.0323 C.ar    1  UNL1        0.0538
      3 C         138.8835  138.2143  161.2093 C.ar    1  UNL1        0.1126
      4 N         137.9300  139.3639  161.0693 N.ar    1  UNL1       -0.2299
      5 C         138.5066  140.5366  161.8058 C.ar    1  UNL1        0.1172
      6 N         139.8163  140.1118  162.4010 N.ar    1  UNL1       -0.3440
      7 H         140.4175  140.6759  162.9391 H       1  UNL1        0.1668
      8 C         141.2390  137.8490  162.4188 C.3     1  UNL1        0.0452
      9 C         141.8917  138.0514  163.7541 C.3     1  UNL1        0.0055
     10 C         140.7021  137.4357  164.4291 C.3     1  UNL1        0.0004
     11 C         143.0814  138.6672  163.0791 C.3     1  UNL1        0.0004
     12 C         143.4267  139.4449  165.3200 C.3     1  UNL1        0.0000
     13 C         142.5445  138.2539  165.0893 C.3     1  UNL1        0.0004
     14 C         137.6130  142.4796  163.2810 C.3     1  UNL1        0.0343
     15 C         138.5371  142.1808  164.4242 C.ar    1  UNL1       -0.0217
     16 C         138.3573  140.9256  165.2255 C.ar    1  UNL1       -0.0042
     17 C         139.2813  140.6268  166.3687 C.ar    1  UNL1        0.0012
     18 C         140.3852  141.5832  166.7105 C.ar    1  UNL1        0.0176
     19 C         140.5650  142.8383  165.9091 C.ar    1  UNL1        0.0012
     20 C         139.6410  143.1371  164.7660 C.ar    1  UNL1       -0.0042
     21 C         141.3092  141.2843  167.8537 C.ar    1  UNL1        0.0813
     22 C         141.3687  139.8998  168.4278 C.ar    1  UNL1        0.0191
     23 C         142.2927  139.6010  169.5710 C.ar    1  UNL1        0.0031
     24 C         143.1573  140.6866  170.1400 C.ar    1  UNL1        0.0207
     25 C         143.0979  142.0711  169.5658 C.ar    1  UNL1        0.0988
     26 N         142.1739  142.3699  168.4227 N.ar    1  UNL1       -0.2438
@<TRIPOS>BOND
     1    12    13    1
     2    13     9    1
     3     9    10    1
     4     9    11    1
     5     9     8    1
     6     8     2    1
     7     2     3   ar
     8     3     4   ar
     9     4     5   ar
    10     5     1    1
    11     1    14    1
    12    14    15    1
    13    15    16   ar
    14    16    17   ar
    15    17    18   ar
    16    18    21    1
    17    21    22   ar
    18    22    23   ar
    19    23    24   ar
    20    24    25   ar
    21    25    26   ar
    22    18    19   ar
    23    19    20   ar
    24     5     6   ar
    25     6     2   ar
    26    20    15   ar
    27    26    21   ar
    28     6     7    1
@<TRIPOS>MOLECULE
*****
 26 28 0 0 0
SMALL
GASTEIGER

@<TRIPOS>ATOM
      1 C         143.9373  140.3605  161.8793 C.3     1  UNL1        0.0684
      2 C         140.0891  140.2628  162.3767 C.ar    1  UNL1        0.0538
      3 C         140.2488  141.5362  161.6001 C.ar    1  UNL1        0.1126
      4 N         141.7098  141.7278  161.3193 N.ar    1  UNL1       -0.2299
      5 C         142.4530  140.5728  161.9223 C.ar    1  UNL1        0.1172
      6 N         141.4514  139.6674  162.5757 N.ar    1  UNL1       -0.3440
      7 H         141.6528  138.8295  163.0517 H       1  UNL1        0.1668
      8 C         138.7946  139.6861  162.8679 C.3     1  UNL1        0.0452
      9 C         138.7554  138.9220  164.1581 C.3     1  UNL1        0.0055
     10 C         138.7679  140.2124  164.9227 C.3     1  UNL1        0.0004
     11 C         138.7428  137.6316  163.3934 C.3     1  UNL1        0.0004
     12 C         137.9622  138.7074  166.6228 C.3     1  UNL1        0.0000
     13 C         138.7162  138.1579  165.4482 C.3     1  UNL1        0.0004
     14 C         144.7599  140.5614  163.1174 C.3     1  UNL1        0.0343
     15 C         144.0915  140.6342  164.4583 C.ar    1  UNL1       -0.0217
     16 C         143.7132  139.3732  165.1772 C.ar    1  UNL1       -0.0042
     17 C         143.0448  139.4461  166.5180 C.ar    1  UNL1        0.0012
     18 C         142.7547  140.7799  167.1400 C.ar    1  UNL1        0.0176
     19 C         143.1330  142.0408  166.4211 C.ar    1  UNL1        0.0012
     20 C         143.8013  141.9680  165.0803 C.ar    1  UNL1       -0.0042
     21 C         142.0863  140.8526  168.4809 C.ar    1  UNL1        0.0813
     22 C         140.8365  140.0647  168.7397 C.ar    1  UNL1        0.0191
     23 C         140.1680  140.1374  170.0806 C.ar    1  UNL1        0.0031
     24 C         140.7495  140.9982  171.1627 C.ar    1  UNL1        0.0207
     25 C         141.9994  141.7862  170.9039 C.ar    1  UNL1        0.0988
     26 N         142.6678  141.7134  169.5630 N.ar    1  UNL1       -0.2438
@<TRIPOS>BOND
     1    12    13    1
     2    13     9    1
     3     9    10    1
     4     9    11    1
     5     9     8    1
     6     8     2    1
     7     2     3   ar
     8     3     4   ar
     9     4     5   ar
    10     5     1    1
    11     1    14    1
    12    14    15    1
    13    15    16   ar
    14    16    17   ar
    15    17    18   ar
    16    18    21    1
    17    21    22   ar
    18    22    23   ar
    19    23    24   ar
    20    24    25   ar
    21    25    26   ar
    22    18    19   ar
    23    19    20   ar
    24     5     6   ar
    25     6     2   ar
    26    20    15   ar
    27    26    21   ar
    28     6     7    1
@<TRIPOS>MOLECULE
*****
 26 28 0 0 0
SMALL
GASTEIGER

@<TRIPOS>ATOM
      1 C         138.1001  144.5393  162.6657 C.3     1  UNL1        0.0684
      2 C         141.8303  144.1251  161.6761 C.ar    1  UNL1        0.0538
      3 C         141.2245  144.5233  160.3629 C.ar    1  UNL1        0.1126
      4 N         139.7534  144.7270  160.5738 N.ar    1  UNL1       -0.2299
      5 C         139.4501  144.4546  162.0173 C.ar    1  UNL1        0.1172
      6 N         140.7336  144.0826  162.6986 N.ar    1  UNL1       -0.3440
      7 H         140.8379  143.8512  163.6498 H       1  UNL1        0.1668
      8 C         143.2784  143.8225  161.9234 C.3     1  UNL1        0.0452
      9 C         143.7234  143.3346  163.2702 C.3     1  UNL1        0.0055
     10 C         143.8690  144.7529  163.7361 C.3     1  UNL1        0.0004
     11 C         143.5778  141.9161  162.8043 C.3     1  UNL1        0.0004
     12 C         144.7163  143.8156  165.6224 C.3     1  UNL1        0.0000
     13 C         144.1684  142.8466  164.6170 C.3     1  UNL1        0.0004
     14 C         137.6303  143.4361  163.5669 C.3     1  UNL1        0.0343
     15 C         138.5229  142.9301  164.6612 C.ar    1  UNL1       -0.0217
     16 C         138.7214  141.4548  164.8452 C.ar    1  UNL1       -0.0042
     17 C         139.6140  140.9489  165.9394 C.ar    1  UNL1        0.0012
     18 C         140.3080  141.9184  166.8496 C.ar    1  UNL1        0.0176
     19 C         140.1095  143.3937  166.6656 C.ar    1  UNL1        0.0012
     20 C         139.2169  143.8996  165.5714 C.ar    1  UNL1       -0.0042
     21 C         141.2006  141.4124  167.9439 C.ar    1  UNL1        0.0813
     22 C         142.3912  142.2175  168.3731 C.ar    1  UNL1        0.0191
     23 C         143.2838  141.7115  169.4674 C.ar    1  UNL1        0.0031
     24 C         142.9857  140.4005  170.1324 C.ar    1  UNL1        0.0207
     25 C         141.7951  139.5954  169.7032 C.ar    1  UNL1        0.0988
     26 N         140.9025  140.1014  168.6090 N.ar    1  UNL1       -0.2438
@<TRIPOS>BOND
     1    12    13    1
     2    13     9    1
     3     9    10    1
     4     9    11    1
     5     9     8    1
     6     8     2    1
     7     2     3   ar
     8     3     4   ar
     9     4     5   ar
    10     5     1    1
    11     1    14    1
    12    14    15    1
    13    15    16   ar
    14    16    17   ar
    15    17    18   ar
    16    18    21    1
    17    21    22   ar
    18    22    23   ar
    19    23    24   ar
    20    24    25   ar
    21    25    26   ar
    22    18    19   ar
    23    19    20   ar
    24     5     6   ar
    25     6     2   ar
    26    20    15   ar
    27    26    21   ar
    28     6     7    1
