@<TRIPOS>MOLECULE
*****
 36 40 0 0 0
SMALL
GASTEIGER

@<TRIPOS>ATOM
      1 O         142.2210  142.4702  166.7398 O.3     1  UNL1       -0.4535
      2 C         140.9533  144.5207  162.9400 C.ar    1  UNL1        0.0536
      3 C         139.9842  144.3814  164.0764 C.ar    1  UNL1        0.0076
      4 C         140.4068  143.6979  165.3429 C.ar    1  UNL1        0.0376
      5 C         141.7985  143.1537  165.4732 C.ar    1  UNL1        0.1453
      6 C         142.7677  143.2930  164.3367 C.ar    1  UNL1        0.0376
      7 C         142.3450  143.9765  163.0701 C.ar    1  UNL1        0.0076
      8 O         139.1861  145.8636  161.5896 O.2     1  UNL1       -0.2701
      9 C         140.5307  145.2042  161.6734 C.2     1  UNL1        0.2461
     10 N         141.4528  145.2283  160.4906 N.am    1  UNL1       -0.2956
     11 H         142.3354  144.7955  160.5456 H       1  UNL1        0.1501
     12 C         141.0303  145.9118  159.2239 C.3     1  UNL1        0.1361
     13 C         140.2688  145.1510  158.1792 C.ar    1  UNL1        0.0821
     14 C         139.8916  143.7193  158.4198 C.ar    1  UNL1        0.0371
     15 C         139.1301  142.9585  157.3751 C.ar    1  UNL1        0.1019
     16 N         138.7460  143.6295  156.0897 N.ar    1  UNL1       -0.2224
     17 C         139.1233  145.0613  155.8490 C.ar    1  UNL1        0.1986
     18 N         139.8847  145.8220  156.8938 N.ar    1  UNL1       -0.2266
     19 C         141.1993  141.7895  167.6016 C.ar    1  UNL1        0.1453
     20 C         140.8391  142.3688  168.9375 C.ar    1  UNL1        0.0381
     21 C         139.8174  141.6881  169.7993 C.ar    1  UNL1        0.0114
     22 C         139.1558  140.4281  169.3252 C.ar    1  UNL1        0.0419
     23 C         139.5160  139.8489  167.9893 C.ar    1  UNL1        0.0114
     24 C         140.5377  140.5296  167.1274 C.ar    1  UNL1        0.0381
     25 C         138.1341  139.7475  170.1870 C.1     1  UNL1       -0.0621
     26 C         137.1123  139.0669  171.0488 C.1     1  UNL1       -0.0597
     27 C         135.4705  137.6874  172.7421 C.3     1  UNL1        0.1561
     28 O         135.4953  139.7916  171.8096 O.3     1  UNL1       -0.3739
     29 C         136.3471  136.6616  172.6052 C.3     1  UNL1        0.1120
     30 N         136.8501  136.0118  172.5532 N.3     1  UNL1       -0.2699
     31 C         135.6411  135.8536  173.4268 C.3     1  UNL1        0.0723
     32 C         134.6716  136.9881  173.5782 C.3     1  UNL1        0.0207
     33 C         134.9112  138.2808  172.8560 C.3     1  UNL1        0.0404
     34 C         136.1203  138.4390  171.9824 C.3     1  UNL1        0.0207
     35 C         137.0897  137.3045  171.8310 C.3     1  UNL1        0.0723
     36 H         136.2793  139.8865  171.2464 H       1  UNL1        0.2115
@<TRIPOS>BOND
     1     8     9    2
     2     9    10   am
     3    10    12    1
     4    12    13    1
     5    13    14   ar
     6    14    15   ar
     7    15    16   ar
     8    16    17   ar
     9    17    18   ar
    10     9     2    1
    11     2     3   ar
    12     3     4   ar
    13     4     5   ar
    14     5     1    1
    15     1    19    1
    16    19    20   ar
    17    20    21   ar
    18    21    22   ar
    19    22    25    1
    20    25    26    3
    21    26    27    1
    22    27    28    1
    23    27    29    1
    24    29    30    1
    25    30    31    1
    26    31    32    1
    27    32    33    1
    28    33    34    1
    29    34    35    1
    30    22    23   ar
    31    23    24   ar
    32     5     6   ar
    33     6     7   ar
    34    18    13   ar
    35     7     2   ar
    36    24    19   ar
    37    33    27    1
    38    35    30    1
    39    10    11    1
    40    28    36    1
@<TRIPOS>MOLECULE
*****
 36 40 0 0 0
SMALL
GASTEIGER

@<TRIPOS>ATOM
      1 O         142.0819  142.6956  166.7158 O.3     1  UNL1       -0.4535
      2 C         141.0519  143.4938  162.4086 C.ar    1  UNL1        0.0536
      3 C         140.2701  144.1589  163.5024 C.ar    1  UNL1        0.0076
      4 C         140.6134  143.8928  164.9381 C.ar    1  UNL1        0.0376
      5 C         141.7386  142.9617  165.2801 C.ar    1  UNL1        0.1453
      6 C         142.5205  142.2966  164.1862 C.ar    1  UNL1        0.0376
      7 C         142.1771  142.5627  162.7504 C.ar    1  UNL1        0.0076
      8 O         141.5115  144.7484  160.1804 O.2     1  UNL1       -0.2701
      9 C         140.7085  143.7600  160.9728 C.2     1  UNL1        0.2461
     10 N         139.5621  143.0375  160.3296 N.am    1  UNL1       -0.2956
     11 H         139.0351  142.3887  160.8498 H       1  UNL1        0.1501
     12 C         139.2186  143.3036  158.8939 C.3     1  UNL1        0.1361
     13 C         138.7131  142.1903  158.0249 C.ar    1  UNL1        0.0821
     14 C         139.4556  140.8883  157.9663 C.ar    1  UNL1        0.0371
     15 C         138.9501  139.7750  157.0974 C.ar    1  UNL1        0.1019
     16 N         137.7020  139.9639  156.2870 N.ar    1  UNL1       -0.2224
     17 C         136.9595  141.2660  156.3455 C.ar    1  UNL1        0.1986
     18 N         137.4651  142.3792  157.2145 N.ar    1  UNL1       -0.2266
     19 C         141.0987  141.9929  167.6043 C.ar    1  UNL1        0.1453
     20 C         140.4853  140.6961  167.1661 C.ar    1  UNL1        0.0381
     21 C         139.5021  139.9933  168.0545 C.ar    1  UNL1        0.0114
     22 C         139.1322  140.5875  169.3813 C.ar    1  UNL1        0.0419
     23 C         139.7456  141.8843  169.8195 C.ar    1  UNL1        0.0114
     24 C         140.7288  142.5870  168.9310 C.ar    1  UNL1        0.0381
     25 C         138.1490  139.8847  170.2698 C.1     1  UNL1       -0.0621
     26 C         137.1657  139.1821  171.1582 C.1     1  UNL1       -0.0597
     27 C         135.5074  137.6571  172.7042 C.3     1  UNL1        0.1561
     28 O         135.4781  139.7979  171.8592 O.3     1  UNL1       -0.3739
     29 C         136.4388  136.6798  172.5738 C.3     1  UNL1        0.1120
     30 N         136.9749  136.0569  172.5231 N.3     1  UNL1       -0.2699
     31 C         135.7314  135.8057  173.3233 C.3     1  UNL1        0.0723
     32 C         134.7013  136.8865  173.4675 C.3     1  UNL1        0.0207
     33 C         134.9148  138.2184  172.8115 C.3     1  UNL1        0.0404
     34 C         136.1583  138.4696  172.0113 C.3     1  UNL1        0.0207
     35 C         137.1884  137.3889  171.8671 C.3     1  UNL1        0.0723
     36 H         136.2847  139.9529  171.3433 H       1  UNL1        0.2115
@<TRIPOS>BOND
     1     8     9    2
     2     9    10   am
     3    10    12    1
     4    12    13    1
     5    13    14   ar
     6    14    15   ar
     7    15    16   ar
     8    16    17   ar
     9    17    18   ar
    10     9     2    1
    11     2     3   ar
    12     3     4   ar
    13     4     5   ar
    14     5     1    1
    15     1    19    1
    16    19    20   ar
    17    20    21   ar
    18    21    22   ar
    19    22    25    1
    20    25    26    3
    21    26    27    1
    22    27    28    1
    23    27    29    1
    24    29    30    1
    25    30    31    1
    26    31    32    1
    27    32    33    1
    28    33    34    1
    29    34    35    1
    30    22    23   ar
    31    23    24   ar
    32     5     6   ar
    33     6     7   ar
    34    18    13   ar
    35     7     2   ar
    36    24    19   ar
    37    33    27    1
    38    35    30    1
    39    10    11    1
    40    28    36    1
@<TRIPOS>MOLECULE
*****
 36 40 0 0 0
SMALL
GASTEIGER

@<TRIPOS>ATOM
      1 O         141.3951  145.0031  159.9518 O.3     1  UNL1       -0.4535
      2 C         138.3944  143.0932  157.1954 C.ar    1  UNL1        0.0536
      3 C         138.4874  142.6503  158.6255 C.ar    1  UNL1        0.0076
      4 C         139.4876  143.2869  159.5442 C.ar    1  UNL1        0.0376
      5 C         140.3949  144.3665  159.0330 C.ar    1  UNL1        0.1453
      6 C         140.3020  144.8094  157.6028 C.ar    1  UNL1        0.0376
      7 C         139.3017  144.1727  156.6840 C.ar    1  UNL1        0.0076
      8 O         137.1726  143.0187  154.9038 O.2     1  UNL1       -0.2701
      9 C         137.3942  142.4565  156.2766 C.2     1  UNL1        0.2461
     10 N         136.6155  141.2576  156.7307 N.am    1  UNL1       -0.2956
     11 H         136.7610  140.8886  157.6318 H       1  UNL1        0.1501
     12 C         135.6152  140.6208  155.8120 C.3     1  UNL1        0.1361
     13 C         134.2404  140.2909  156.3130 C.ar    1  UNL1        0.0821
     14 C         133.0439  140.9845  155.7322 C.ar    1  UNL1        0.0371
     15 C         131.6691  140.6545  156.2332 C.ar    1  UNL1        0.1019
     16 N         131.4909  139.6309  157.3152 N.ar    1  UNL1       -0.2224
     17 C         132.6874  138.9373  157.8960 C.ar    1  UNL1        0.1986
     18 N         134.0622  139.2673  157.3949 N.ar    1  UNL1       -0.2266
     19 C         141.6459  144.4168  161.3096 C.ar    1  UNL1        0.1453
     20 C         140.9844  145.0116  162.5172 C.ar    1  UNL1        0.0381
     21 C         141.2351  144.4254  163.8749 C.ar    1  UNL1        0.0114
     22 C         142.1474  143.2442  164.0250 C.ar    1  UNL1        0.0419
     23 C         142.8090  142.6493  162.8173 C.ar    1  UNL1        0.0114
     24 C         142.5582  143.2356  161.4596 C.ar    1  UNL1        0.0381
     25 C         142.3981  142.6579  165.3827 C.1     1  UNL1       -0.0621
     26 C         142.6490  142.0717  166.7404 C.1     1  UNL1       -0.0597
     27 C         142.8212  141.0171  169.2551 C.3     1  UNL1        0.1561
     28 O         143.7438  142.8103  168.1456 O.3     1  UNL1       -0.3739
     29 C         141.9466  140.0766  168.8189 C.3     1  UNL1        0.1120
     30 N         141.4176  139.4849  168.5999 N.3     1  UNL1       -0.2699
     31 C         141.9253  139.4399  170.0107 C.3     1  UNL1        0.0723
     32 C         142.8925  140.4800  170.4931 C.3     1  UNL1        0.0207
     33 C         143.3520  141.5649  169.5648 C.3     1  UNL1        0.0404
     34 C         142.8444  141.6099  168.1541 C.3     1  UNL1        0.0207
     35 C         141.8771  140.5698  167.6717 C.3     1  UNL1        0.0723
     36 H         143.4111  142.8329  167.2347 H       1  UNL1        0.2115
@<TRIPOS>BOND
     1     8     9    2
     2     9    10   am
     3    10    12    1
     4    12    13    1
     5    13    14   ar
     6    14    15   ar
     7    15    16   ar
     8    16    17   ar
     9    17    18   ar
    10     9     2    1
    11     2     3   ar
    12     3     4   ar
    13     4     5   ar
    14     5     1    1
    15     1    19    1
    16    19    20   ar
    17    20    21   ar
    18    21    22   ar
    19    22    25    1
    20    25    26    3
    21    26    27    1
    22    27    28    1
    23    27    29    1
    24    29    30    1
    25    30    31    1
    26    31    32    1
    27    32    33    1
    28    33    34    1
    29    34    35    1
    30    22    23   ar
    31    23    24   ar
    32     5     6   ar
    33     6     7   ar
    34    18    13   ar
    35     7     2   ar
    36    24    19   ar
    37    33    27    1
    38    35    30    1
    39    10    11    1
    40    28    36    1
@<TRIPOS>MOLECULE
*****
 36 40 0 0 0
SMALL
GASTEIGER

@<TRIPOS>ATOM
      1 O         139.7333  141.5847  166.4160 O.3     1  UNL1       -0.4535
      2 C         141.3211  142.8888  162.4125 C.ar    1  UNL1        0.0536
      3 C         140.5909  141.5848  162.5412 C.ar    1  UNL1        0.0076
      4 C         140.0617  141.1502  163.8757 C.ar    1  UNL1        0.0376
      5 C         140.2625  142.0194  165.0815 C.ar    1  UNL1        0.1453
      6 C         140.9927  143.3234  164.9528 C.ar    1  UNL1        0.0376
      7 C         141.5220  143.7581  163.6182 C.ar    1  UNL1        0.0076
      8 O         142.5712  144.6322  160.9470 O.2     1  UNL1       -0.2701
      9 C         141.8504  143.3234  161.0779 C.2     1  UNL1        0.2461
     10 N         141.6587  142.4491  159.8743 N.am    1  UNL1       -0.2956
     11 H         141.1856  141.5900  159.9602 H       1  UNL1        0.1501
     12 C         142.1880  142.8837  158.5396 C.3     1  UNL1        0.1361
     13 C         141.3811  143.8094  157.6782 C.ar    1  UNL1        0.0821
     14 C         141.9453  145.1385  157.2719 C.ar    1  UNL1        0.0371
     15 C         141.1385  146.0641  156.4105 C.ar    1  UNL1        0.1019
     16 N         139.7674  145.6606  155.9552 N.ar    1  UNL1       -0.2224
     17 C         139.2031  144.3315  156.3615 C.ar    1  UNL1        0.1986
     18 N         140.0100  143.4058  157.2230 N.ar    1  UNL1       -0.2266
     19 C         140.5894  140.7584  167.3294 C.ar    1  UNL1        0.1453
     20 C         140.1643  140.5256  168.7489 C.ar    1  UNL1        0.0381
     21 C         141.0203  139.6993  169.6624 C.ar    1  UNL1        0.0114
     22 C         142.3016  139.1057  169.1561 C.ar    1  UNL1        0.0419
     23 C         142.7266  139.3384  167.7366 C.ar    1  UNL1        0.0114
     24 C         141.8705  140.1648  166.8232 C.ar    1  UNL1        0.0381
     25 C         143.1576  138.2793  170.0696 C.1     1  UNL1       -0.0621
     26 C         144.0135  137.4529  170.9830 C.1     1  UNL1       -0.0597
     27 C         145.7792  136.1441  172.6063 C.3     1  UNL1        0.1561
     28 O         145.3865  138.3329  172.0122 O.3     1  UNL1       -0.3739
     29 C         145.1460  135.0081  172.2215 C.3     1  UNL1        0.1120
     30 N         144.7934  134.2926  172.0173 N.3     1  UNL1       -0.2699
     31 C         145.9430  134.2217  172.9782 C.3     1  UNL1        0.0723
     32 C         146.6432  135.4780  173.4038 C.3     1  UNL1        0.0207
     33 C         146.1938  136.8053  172.8685 C.3     1  UNL1        0.0404
     34 C         145.0442  136.8762  171.9077 C.3     1  UNL1        0.0207
     35 C         144.3440  135.6198  171.4820 C.3     1  UNL1        0.0723
     36 H         144.6424  138.3708  171.3911 H       1  UNL1        0.2115
@<TRIPOS>BOND
     1     8     9    2
     2     9    10   am
     3    10    12    1
     4    12    13    1
     5    13    14   ar
     6    14    15   ar
     7    15    16   ar
     8    16    17   ar
     9    17    18   ar
    10     9     2    1
    11     2     3   ar
    12     3     4   ar
    13     4     5   ar
    14     5     1    1
    15     1    19    1
    16    19    20   ar
    17    20    21   ar
    18    21    22   ar
    19    22    25    1
    20    25    26    3
    21    26    27    1
    22    27    28    1
    23    27    29    1
    24    29    30    1
    25    30    31    1
    26    31    32    1
    27    32    33    1
    28    33    34    1
    29    34    35    1
    30    22    23   ar
    31    23    24   ar
    32     5     6   ar
    33     6     7   ar
    34    18    13   ar
    35     7     2   ar
    36    24    19   ar
    37    33    27    1
    38    35    30    1
    39    10    11    1
    40    28    36    1
@<TRIPOS>MOLECULE
*****
 36 40 0 0 0
SMALL
GASTEIGER

@<TRIPOS>ATOM
      1 O         138.7224  138.5938  160.6381 O.3     1  UNL1       -0.4535
      2 C         138.5475  138.9568  165.1200 C.ar    1  UNL1        0.0536
      3 C         138.0131  140.0609  164.2567 C.ar    1  UNL1        0.0076
      4 C         138.0715  139.9399  162.7627 C.ar    1  UNL1        0.0376
      5 C         138.6641  138.7148  162.1320 C.ar    1  UNL1        0.1453
      6 C         139.1984  137.6106  162.9954 C.ar    1  UNL1        0.0376
      7 C         139.1401  137.7316  164.4894 C.ar    1  UNL1        0.0076
      8 O         137.5686  138.1944  167.4027 O.2     1  UNL1       -0.2701
      9 C         138.4891  139.0778  166.6140 C.2     1  UNL1        0.2461
     10 N         139.3514  140.0824  167.3192 N.am    1  UNL1       -0.2956
     11 H         139.9556  140.6622  166.8015 H       1  UNL1        0.1501
     12 C         139.2931  140.2035  168.8132 C.3     1  UNL1        0.1361
     13 C         140.2259  141.1365  169.5270 C.ar    1  UNL1        0.0821
     14 C         140.2068  142.6028  169.2115 C.ar    1  UNL1        0.0371
     15 C         141.1396  143.5358  169.9253 C.ar    1  UNL1        0.1019
     16 N         142.0915  143.0024  170.9546 N.ar    1  UNL1       -0.2224
     17 C         142.1106  141.5360  171.2701 C.ar    1  UNL1        0.1986
     18 N         141.1778  140.6031  170.5563 N.ar    1  UNL1       -0.2266
     19 C         139.9361  139.0666  159.8941 C.ar    1  UNL1        0.1453
     20 C         140.7934  140.1537  160.4714 C.ar    1  UNL1        0.0381
     21 C         142.0071  140.6265  159.7275 C.ar    1  UNL1        0.0114
     22 C         142.3634  140.0123  158.4061 C.ar    1  UNL1        0.0419
     23 C         141.5060  138.9252  157.8288 C.ar    1  UNL1        0.0114
     24 C         140.2924  138.4524  158.5728 C.ar    1  UNL1        0.0381
     25 C         143.5770  140.4851  157.6622 C.1     1  UNL1       -0.0621
     26 C         144.7907  140.9578  156.9183 C.1     1  UNL1       -0.0597
     27 C         146.8869  142.0830  155.5746 C.3     1  UNL1        0.1561
     28 O         145.9669  142.2857  157.6747 O.3     1  UNL1       -0.3739
     29 C         146.5192  141.2964  154.5326 C.3     1  UNL1        0.1120
     30 N         146.3342  140.8386  153.8737 N.3     1  UNL1       -0.2699
     31 C         147.5122  141.7576  153.7405 C.3     1  UNL1        0.0723
     32 C         147.9189  142.6275  154.8928 C.3     1  UNL1        0.0207
     33 C         147.1476  142.5783  156.1783 C.3     1  UNL1        0.0404
     34 C         145.9697  141.6594  156.3116 C.3     1  UNL1        0.0207
     35 C         145.5629  140.7895  155.1593 C.3     1  UNL1        0.0723
     36 H         145.2063  141.6889  157.7534 H       1  UNL1        0.2115
@<TRIPOS>BOND
     1     8     9    2
     2     9    10   am
     3    10    12    1
     4    12    13    1
     5    13    14   ar
     6    14    15   ar
     7    15    16   ar
     8    16    17   ar
     9    17    18   ar
    10     9     2    1
    11     2     3   ar
    12     3     4   ar
    13     4     5   ar
    14     5     1    1
    15     1    19    1
    16    19    20   ar
    17    20    21   ar
    18    21    22   ar
    19    22    25    1
    20    25    26    3
    21    26    27    1
    22    27    28    1
    23    27    29    1
    24    29    30    1
    25    30    31    1
    26    31    32    1
    27    32    33    1
    28    33    34    1
    29    34    35    1
    30    22    23   ar
    31    23    24   ar
    32     5     6   ar
    33     6     7   ar
    34    18    13   ar
    35     7     2   ar
    36    24    19   ar
    37    33    27    1
    38    35    30    1
    39    10    11    1
    40    28    36    1
@<TRIPOS>MOLECULE
*****
 36 40 0 0 0
SMALL
GASTEIGER

@<TRIPOS>ATOM
      1 O         144.7949  143.2217  160.5616 O.3     1  UNL1       -0.4535
      2 C         143.8238  140.2345  157.3392 C.ar    1  UNL1        0.0536
      3 C         144.6084  141.4688  157.0060 C.ar    1  UNL1        0.0076
      4 C         144.9321  142.4644  158.0801 C.ar    1  UNL1        0.0376
      5 C         144.4712  142.2260  159.4875 C.ar    1  UNL1        0.1453
      6 C         143.6866  140.9916  159.8207 C.ar    1  UNL1        0.0376
      7 C         143.3629  139.9959  158.7465 C.ar    1  UNL1        0.0076
      8 O         142.9805  139.7086  154.9388 O.2     1  UNL1       -0.2701
      9 C         143.5002  139.2388  156.2650 C.2     1  UNL1        0.2461
     10 N         143.6963  137.7732  156.5172 N.am    1  UNL1       -0.2956
     11 H         144.0374  137.4649  157.3877 H       1  UNL1        0.1501
     12 C         143.3726  136.7774  155.4431 C.3     1  UNL1        0.1361
     13 C         143.0162  135.3675  155.8102 C.ar    1  UNL1        0.0821
     14 C         141.9597  134.6353  155.0372 C.ar    1  UNL1        0.0371
     15 C         141.6032  133.2253  155.4044 C.ar    1  UNL1        0.1019
     16 N         142.3034  132.5475  156.5448 N.ar    1  UNL1       -0.2224
     17 C         143.3600  133.2796  157.3179 C.ar    1  UNL1        0.1986
     18 N         143.7164  134.6896  156.9506 N.ar    1  UNL1       -0.2266
     19 C         144.3774  142.9590  161.9783 C.ar    1  UNL1        0.1453
     20 C         145.2496  142.1328  162.8763 C.ar    1  UNL1        0.0381
     21 C         144.8322  141.8702  164.2929 C.ar    1  UNL1        0.0114
     22 C         143.5424  142.4339  164.8114 C.ar    1  UNL1        0.0419
     23 C         142.6702  143.2601  163.9134 C.ar    1  UNL1        0.0114
     24 C         143.0877  143.5227  162.4968 C.ar    1  UNL1        0.0381
     25 C         143.1249  142.1712  166.2280 C.1     1  UNL1       -0.0621
     26 C         142.7076  141.9086  167.6446 C.1     1  UNL1       -0.0597
     27 C         141.7081  141.3125  170.1167 C.3     1  UNL1        0.1561
     28 O         143.2761  142.7711  169.2731 O.3     1  UNL1       -0.3739
     29 C         140.9281  140.4045  169.4789 C.3     1  UNL1        0.1120
     30 N         140.4349  139.8410  169.1365 N.3     1  UNL1       -0.2699
     31 C         140.3382  139.9988  170.6250 C.3     1  UNL1        0.0723
     32 C         141.2008  141.0029  171.3304 C.3     1  UNL1        0.0207
     33 C         142.1601  141.8492  170.5473 C.3     1  UNL1        0.0404
     34 C         142.2569  141.6915  169.0588 C.3     1  UNL1        0.0207
     35 C         141.3943  140.6874  168.3534 C.3     1  UNL1        0.0723
     36 H         143.3331  142.6634  168.3108 H       1  UNL1        0.2115
@<TRIPOS>BOND
     1     8     9    2
     2     9    10   am
     3    10    12    1
     4    12    13    1
     5    13    14   ar
     6    14    15   ar
     7    15    16   ar
     8    16    17   ar
     9    17    18   ar
    10     9     2    1
    11     2     3   ar
    12     3     4   ar
    13     4     5   ar
    14     5     1    1
    15     1    19    1
    16    19    20   ar
    17    20    21   ar
    18    21    22   ar
    19    22    25    1
    20    25    26    3
    21    26    27    1
    22    27    28    1
    23    27    29    1
    24    29    30    1
    25    30    31    1
    26    31    32    1
    27    32    33    1
    28    33    34    1
    29    34    35    1
    30    22    23   ar
    31    23    24   ar
    32     5     6   ar
    33     6     7   ar
    34    18    13   ar
    35     7     2   ar
    36    24    19   ar
    37    33    27    1
    38    35    30    1
    39    10    11    1
    40    28    36    1
@<TRIPOS>MOLECULE
*****
 36 40 0 0 0
SMALL
GASTEIGER

@<TRIPOS>ATOM
      1 O         142.1884  142.8002  166.9794 O.3     1  UNL1       -0.4535
      2 C         142.4316  142.1747  162.5297 C.ar    1  UNL1        0.0536
      3 C         143.3269  141.3953  163.4467 C.ar    1  UNL1        0.0076
      4 C         143.2458  141.6038  164.9299 C.ar    1  UNL1        0.0376
      5 C         142.2695  142.5917  165.4962 C.ar    1  UNL1        0.1453
      6 C         141.3741  143.3712  164.5791 C.ar    1  UNL1        0.0376
      7 C         141.4552  143.1627  163.0959 C.ar    1  UNL1        0.0076
      8 O         141.2771  142.0823  160.2041 O.2     1  UNL1       -0.2701
      9 C         142.5126  141.9662  161.0464 C.2     1  UNL1        0.2461
     10 N         143.8295  141.6415  160.4057 N.am    1  UNL1       -0.2956
     11 H         144.6404  141.5653  160.9586 H       1  UNL1        0.1501
     12 C         143.9106  141.4329  158.9224 C.3     1  UNL1        0.1361
     13 C         143.6266  140.0807  158.3385 C.ar    1  UNL1        0.0821
     14 C         142.9611  139.0277  159.1740 C.ar    1  UNL1        0.0371
     15 C         142.6771  137.6755  158.5902 C.ar    1  UNL1        0.1019
     16 N         143.0586  137.3764  157.1706 N.ar    1  UNL1       -0.2224
     17 C         143.7241  138.4295  156.3350 C.ar    1  UNL1        0.1986
     18 N         144.0081  139.7817  156.9190 N.ar    1  UNL1       -0.2266
     19 C         141.1931  142.0265  167.7923 C.ar    1  UNL1        0.1453
     20 C         140.4781  140.8555  167.1861 C.ar    1  UNL1        0.0381
     21 C         139.4828  140.0818  167.9990 C.ar    1  UNL1        0.0114
     22 C         139.2026  140.4791  169.4181 C.ar    1  UNL1        0.0419
     23 C         139.9177  141.6500  170.0242 C.ar    1  UNL1        0.0114
     24 C         140.9130  142.4238  169.2113 C.ar    1  UNL1        0.0381
     25 C         138.2073  139.7053  170.2309 C.1     1  UNL1       -0.0621
     26 C         137.2121  138.9315  171.0436 C.1     1  UNL1       -0.0597
     27 C         135.4247  137.7279  172.7236 C.3     1  UNL1        0.1561
     28 O         135.5810  139.7599  171.6537 O.3     1  UNL1       -0.3739
     29 C         136.2696  136.6670  172.7102 C.3     1  UNL1        0.1120
     30 N         136.7506  135.9991  172.7331 N.3     1  UNL1       -0.2699
     31 C         135.4876  135.9419  173.5403 C.3     1  UNL1        0.0723
     32 C         134.5533  137.1152  173.5551 C.3     1  UNL1        0.0207
     33 C         134.8818  138.3457  172.7628 C.3     1  UNL1        0.0404
     34 C         136.1448  138.4030  171.9556 C.3     1  UNL1        0.0207
     35 C         137.0792  137.2297  171.9408 C.3     1  UNL1        0.0723
     36 H         136.3996  139.7896  171.1342 H       1  UNL1        0.2115
@<TRIPOS>BOND
     1     8     9    2
     2     9    10   am
     3    10    12    1
     4    12    13    1
     5    13    14   ar
     6    14    15   ar
     7    15    16   ar
     8    16    17   ar
     9    17    18   ar
    10     9     2    1
    11     2     3   ar
    12     3     4   ar
    13     4     5   ar
    14     5     1    1
    15     1    19    1
    16    19    20   ar
    17    20    21   ar
    18    21    22   ar
    19    22    25    1
    20    25    26    3
    21    26    27    1
    22    27    28    1
    23    27    29    1
    24    29    30    1
    25    30    31    1
    26    31    32    1
    27    32    33    1
    28    33    34    1
    29    34    35    1
    30    22    23   ar
    31    23    24   ar
    32     5     6   ar
    33     6     7   ar
    34    18    13   ar
    35     7     2   ar
    36    24    19   ar
    37    33    27    1
    38    35    30    1
    39    10    11    1
    40    28    36    1
@<TRIPOS>MOLECULE
*****
 36 40 0 0 0
SMALL
GASTEIGER

@<TRIPOS>ATOM
      1 O         141.0580  144.7706  159.8244 O.3     1  UNL1       -0.4535
      2 C         138.1729  143.0801  156.8131 C.ar    1  UNL1        0.0536
      3 C         139.0798  144.2117  156.4297 C.ar    1  UNL1        0.0076
      4 C         140.0414  144.7752  157.4334 C.ar    1  UNL1        0.0376
      5 C         140.0963  144.2071  158.8206 C.ar    1  UNL1        0.1453
      6 C         139.1893  143.0755  159.2040 C.ar    1  UNL1        0.0376
      7 C         138.2276  142.5120  158.2002 C.ar    1  UNL1        0.0076
      8 O         137.3897  142.8145  154.3501 O.2     1  UNL1       -0.2701
      9 C         137.2111  142.5166  155.8092 C.2     1  UNL1        0.2461
     10 N         136.0709  141.6551  156.2647 N.am    1  UNL1       -0.2956
     11 H         135.9536  141.4595  157.2225 H       1  UNL1        0.1501
     12 C         135.1091  141.0915  155.2609 C.3     1  UNL1        0.1361
     13 C         133.8148  140.4876  155.7193 C.ar    1  UNL1        0.0821
     14 C         132.5425  141.2758  155.6201 C.ar    1  UNL1        0.0371
     15 C         131.2483  140.6719  156.0785 C.ar    1  UNL1        0.1019
     16 N         131.2264  139.2796  156.6362 N.ar    1  UNL1       -0.2224
     17 C         132.4987  138.4912  156.7354 C.ar    1  UNL1        0.1986
     18 N         133.7929  139.0952  156.2770 N.ar    1  UNL1       -0.2266
     19 C         140.9857  144.3362  161.2583 C.ar    1  UNL1        0.1453
     20 C         139.9504  144.9260  162.1694 C.ar    1  UNL1        0.0381
     21 C         139.8781  144.4916  163.6033 C.ar    1  UNL1        0.0114
     22 C         140.8413  143.4673  164.1261 C.ar    1  UNL1        0.0419
     23 C         141.8766  142.8775  163.2150 C.ar    1  UNL1        0.0114
     24 C         141.9488  143.3119  161.7810 C.ar    1  UNL1        0.0381
     25 C         140.7690  143.0329  165.5600 C.1     1  UNL1       -0.0621
     26 C         140.6968  142.5986  166.9939 C.1     1  UNL1       -0.0597
     27 C         140.3767  141.6075  169.5199 C.3     1  UNL1        0.1561
     28 O         140.7696  140.7221  167.4320 O.3     1  UNL1       -0.3739
     29 C         140.2193  142.8984  169.9052 C.3     1  UNL1        0.1120
     30 N         140.1176  143.6655  170.1864 N.3     1  UNL1       -0.2699
     31 C         140.0417  142.5649  171.2027 C.3     1  UNL1        0.0723
     32 C         140.2157  141.1373  170.7766 C.3     1  UNL1        0.0207
     33 C         140.4657  140.8103  169.3342 C.3     1  UNL1        0.0404
     34 C         140.5416  141.9109  168.3179 C.3     1  UNL1        0.0207
     35 C         140.3676  143.3385  168.7440 C.3     1  UNL1        0.0723
     36 H         140.8174  141.4391  166.7805 H       1  UNL1        0.2115
@<TRIPOS>BOND
     1     8     9    2
     2     9    10   am
     3    10    12    1
     4    12    13    1
     5    13    14   ar
     6    14    15   ar
     7    15    16   ar
     8    16    17   ar
     9    17    18   ar
    10     9     2    1
    11     2     3   ar
    12     3     4   ar
    13     4     5   ar
    14     5     1    1
    15     1    19    1
    16    19    20   ar
    17    20    21   ar
    18    21    22   ar
    19    22    25    1
    20    25    26    3
    21    26    27    1
    22    27    28    1
    23    27    29    1
    24    29    30    1
    25    30    31    1
    26    31    32    1
    27    32    33    1
    28    33    34    1
    29    34    35    1
    30    22    23   ar
    31    23    24   ar
    32     5     6   ar
    33     6     7   ar
    34    18    13   ar
    35     7     2   ar
    36    24    19   ar
    37    33    27    1
    38    35    30    1
    39    10    11    1
    40    28    36    1
@<TRIPOS>MOLECULE
*****
 36 40 0 0 0
SMALL
GASTEIGER

@<TRIPOS>ATOM
      1 O         138.1406  142.6247  160.1402 O.3     1  UNL1       -0.4535
      2 C         139.2396  139.2388  157.3876 C.ar    1  UNL1        0.0536
      3 C         138.6798  140.5114  156.8247 C.ar    1  UNL1        0.0076
      4 C         138.3134  141.6400  157.7422 C.ar    1  UNL1        0.0376
      5 C         138.5069  141.4961  159.2227 C.ar    1  UNL1        0.1453
      6 C         139.0668  140.2234  159.7856 C.ar    1  UNL1        0.0376
      7 C         139.4332  139.0947  158.8680 C.ar    1  UNL1        0.0076
      8 O         138.5365  137.2153  155.9175 O.2     1  UNL1       -0.2701
      9 C         139.6060  138.1101  156.4699 C.2     1  UNL1        0.2461
     10 N         141.0420  137.8764  156.1049 N.am    1  UNL1       -0.2956
     11 H         141.7439  138.4637  156.4675 H       1  UNL1        0.1501
     12 C         141.4084  136.7477  155.1872 C.3     1  UNL1        0.1361
     13 C         141.8698  135.4385  155.7557 C.ar    1  UNL1        0.0821
     14 C         141.3635  134.1500  155.1784 C.ar    1  UNL1        0.0371
     15 C         141.8248  132.8409  155.7469 C.ar    1  UNL1        0.1019
     16 N         142.7926  132.8203  156.8928 N.ar    1  UNL1       -0.2224
     17 C         143.2990  134.1088  157.4702 C.ar    1  UNL1        0.1986
     18 N         142.8375  135.4180  156.9016 N.ar    1  UNL1       -0.2266
     19 C         138.6302  142.6277  161.5581 C.ar    1  UNL1        0.1453
     20 C         140.0045  143.1376  161.8760 C.ar    1  UNL1        0.0381
     21 C         140.4941  143.1406  163.2938 C.ar    1  UNL1        0.0114
     22 C         139.6092  142.6337  164.3939 C.ar    1  UNL1        0.0419
     23 C         138.2349  142.1238  164.0760 C.ar    1  UNL1        0.0114
     24 C         137.7453  142.1208  162.6581 C.ar    1  UNL1        0.0381
     25 C         140.0988  142.6367  165.8117 C.1     1  UNL1       -0.0621
     26 C         140.5885  142.6399  167.2295 C.1     1  UNL1       -0.0597
     27 C         141.4727  142.3580  169.7994 C.3     1  UNL1        0.1561
     28 O         140.0286  143.7665  168.6910 O.3     1  UNL1       -0.3739
     29 C         142.2109  141.3206  169.3320 C.3     1  UNL1        0.1120
     30 N         142.6765  140.6841  169.0952 N.3     1  UNL1       -0.2699
     31 C         142.7387  141.0547  170.5474 C.3     1  UNL1        0.0723
     32 C         141.9222  142.2019  171.0642 C.3     1  UNL1        0.0207
     33 C         141.0437  142.9787  170.1289 C.3     1  UNL1        0.0404
     34 C         140.9815  142.6082  168.6767 C.3     1  UNL1        0.0207
     35 C         141.7980  141.4609  168.1599 C.3     1  UNL1        0.0723
     36 H         139.9936  143.5210  167.7532 H       1  UNL1        0.2115
@<TRIPOS>BOND
     1     8     9    2
     2     9    10   am
     3    10    12    1
     4    12    13    1
     5    13    14   ar
     6    14    15   ar
     7    15    16   ar
     8    16    17   ar
     9    17    18   ar
    10     9     2    1
    11     2     3   ar
    12     3     4   ar
    13     4     5   ar
    14     5     1    1
    15     1    19    1
    16    19    20   ar
    17    20    21   ar
    18    21    22   ar
    19    22    25    1
    20    25    26    3
    21    26    27    1
    22    27    28    1
    23    27    29    1
    24    29    30    1
    25    30    31    1
    26    31    32    1
    27    32    33    1
    28    33    34    1
    29    34    35    1
    30    22    23   ar
    31    23    24   ar
    32     5     6   ar
    33     6     7   ar
    34    18    13   ar
    35     7     2   ar
    36    24    19   ar
    37    33    27    1
    38    35    30    1
    39    10    11    1
    40    28    36    1
