@<TRIPOS>MOLECULE
*****
 36 40 0 0 0
SMALL
GASTEIGER

@<TRIPOS>ATOM
      1 C         141.0241  139.3875  160.0113 C.ar    1  UNL1        0.1233
      2 C         141.1652  138.9296  161.4327 C.ar    1  UNL1        0.1180
      3 N         140.9734  140.1203  162.3246 N.ar    1  UNL1       -0.2233
      4 N         140.7138  141.3141  161.4543 N.ar    1  UNL1       -0.0634
      5 N         140.7451  140.8613  160.0247 N.ar    1  UNL1       -0.1287
      6 C         141.0311  140.1176  163.8235 C.3     1  UNL1        0.1834
      7 C         142.3620  140.4611  164.4241 C.3     1  UNL1        0.0386
      8 C         142.7406  140.5436  165.8732 C.3     1  UNL1        0.0317
      9 C         141.8821  140.3030  167.0795 C.ar    1  UNL1        0.0099
     10 C         142.6567  140.4920  168.3500 C.ar    1  UNL1        0.0001
     11 C         141.9820  140.2984  169.6755 C.ar    1  UNL1        0.0204
     12 C         140.5326  139.9159  169.7306 C.ar    1  UNL1        0.1003
     13 N         139.7580  139.7269  168.4601 N.ar    1  UNL1       -0.2291
     14 C         140.4327  139.9205  167.1346 C.ar    1  UNL1        0.1336
     15 N         139.4840  139.6841  165.9970 N.am    1  UNL1       -0.2340
     16 C         139.7502  139.7718  164.5234 C.2     1  UNL1        0.2531
     17 O         138.6945  139.5059  163.4916 O.2     1  UNL1       -0.2724
     18 C         138.0838  139.3106  166.3842 C.3     1  UNL1        0.2027
     19 C         137.7547  137.8878  166.7273 C.3     1  UNL1        0.4160
     20 F         137.4257  136.4652  167.0703 F       1  UNL1       -0.1682
     21 F         138.5750  137.2452  165.6483 F       1  UNL1       -0.1682
     22 F         136.8879  138.3606  167.8566 F       1  UNL1       -0.1682
     23 C         140.0319  137.2966  156.7875 C.ar    1  UNL1        0.1547
     24 C         139.9145  138.1607  158.0079 C.ar    1  UNL1        0.0400
     25 C         141.1415  138.5234  158.7908 C.ar    1  UNL1        0.0241
     26 C         142.4858  138.0220  158.3534 C.ar    1  UNL1        0.0033
     27 C         142.6031  137.1578  157.1329 C.ar    1  UNL1        0.0207
     28 C         141.3762  136.7952  156.3500 C.ar    1  UNL1        0.0994
     29 N         141.4936  135.9310  155.1295 N.ar    1  UNL1       -0.2839
     30 C         141.7455  136.4103  153.7306 C.ar    1  UNL1        0.1826
     31 N         141.7873  135.2114  152.8303 N.ar    1  UNL1       -0.2280
     32 C         141.5613  133.9910  153.6726 C.ar    1  UNL1        0.0786
     33 C         141.5234  132.5746  153.1804 C.3     1  UNL1        0.0538
     34 C         141.3798  134.4357  155.0936 C.ar    1  UNL1        0.0963
     35 C         138.3902  137.7701  154.8303 C.3     1  UNL1        0.2525
     36 O         138.8050  136.9339  156.0045 O.3     1  UNL1       -0.4700
@<TRIPOS>BOND
     1    35    36    1
     2    36    23    1
     3    23    24   ar
     4    24    25   ar
     5    25     1    1
     6     1     2   ar
     7     2     3   ar
     8     3     6    1
     9     6     7    1
    10     7     8    1
    11     8     9    1
    12     9    10   ar
    13    10    11   ar
    14    11    12   ar
    15    12    13   ar
    16    13    14   ar
    17    14    15    1
    18    15    18    1
    19    18    19    1
    20    19    20    1
    21    19    21    1
    22    19    22    1
    23    15    16   am
    24    16    17    2
    25     3     4   ar
    26     4     5   ar
    27    25    26   ar
    28    26    27   ar
    29    27    28   ar
    30    28    29    1
    31    29    30   ar
    32    30    31   ar
    33    31    32   ar
    34    32    33    1
    35    32    34   ar
    36    28    23   ar
    37    34    29   ar
    38     5     1   ar
    39    16     6    1
    40    14     9   ar
@<TRIPOS>MOLECULE
*****
 36 40 0 0 0
SMALL
GASTEIGER

@<TRIPOS>ATOM
      1 C         141.0224  142.2447  160.6764 C.ar    1  UNL1        0.1233
      2 C         140.9032  142.4605  162.1560 C.ar    1  UNL1        0.1180
      3 N         141.2358  141.1683  162.8412 N.ar    1  UNL1       -0.2233
      4 N         141.5606  140.1538  161.7851 N.ar    1  UNL1       -0.0634
      5 N         141.4287  140.8190  160.4471 N.ar    1  UNL1       -0.1287
      6 C         141.2425  140.9320  164.3225 C.3     1  UNL1        0.1834
      7 C         142.5377  141.2208  165.0218 C.3     1  UNL1        0.0386
      8 C         142.8633  141.0870  166.4799 C.3     1  UNL1        0.0317
      9 C         141.9743  140.6315  167.5988 C.ar    1  UNL1        0.0099
     10 C         142.6972  140.6440  168.9130 C.ar    1  UNL1        0.0001
     11 C         141.9858  140.2223  170.1644 C.ar    1  UNL1        0.0204
     12 C         140.5514  139.7880  170.1016 C.ar    1  UNL1        0.1003
     13 N         139.8285  139.7755  168.7874 N.ar    1  UNL1       -0.2291
     14 C         140.5399  140.1972  167.5360 C.ar    1  UNL1        0.1336
     15 N         139.6404  140.1112  166.3387 N.am    1  UNL1       -0.2340
     16 C         139.9530  140.4382  164.9085 C.2     1  UNL1        0.2531
     17 O         138.9442  140.3029  163.8067 O.2     1  UNL1       -0.2724
     18 C         138.2434  139.6352  166.6071 C.3     1  UNL1        0.2027
     19 C         137.9470  138.1654  166.6490 C.3     1  UNL1        0.4160
     20 F         137.6506  136.6956  166.6910 F       1  UNL1       -0.1682
     21 F         138.9281  137.7507  165.5929 F       1  UNL1       -0.1682
     22 F         136.9220  138.4026  167.7183 F       1  UNL1       -0.1682
     23 C         139.5184  144.0457  157.4758 C.ar    1  UNL1        0.1547
     24 C         139.7625  143.0166  158.5393 C.ar    1  UNL1        0.0400
     25 C         140.7782  143.2738  159.6128 C.ar    1  UNL1        0.0241
     26 C         141.5497  144.5601  159.6226 C.ar    1  UNL1        0.0033
     27 C         141.3055  145.5892  158.5590 C.ar    1  UNL1        0.0207
     28 C         140.2898  145.3320  157.4856 C.ar    1  UNL1        0.0994
     29 N         140.0457  146.3612  156.4220 N.ar    1  UNL1       -0.2839
     30 C         139.0398  147.4723  156.4845 C.ar    1  UNL1        0.1826
     31 N         139.1370  148.2577  155.2103 N.ar    1  UNL1       -0.2280
     32 C         140.2029  147.6322  154.3603 C.ar    1  UNL1        0.0786
     33 C         140.6319  148.0970  153.0002 C.3     1  UNL1        0.0538
     34 C         140.7645  146.4601  155.1092 C.ar    1  UNL1        0.0963
     35 C         137.7056  142.5178  156.4130 C.3     1  UNL1        0.2525
     36 O         138.5027  143.7885  156.4023 O.3     1  UNL1       -0.4700
@<TRIPOS>BOND
     1    35    36    1
     2    36    23    1
     3    23    24   ar
     4    24    25   ar
     5    25     1    1
     6     1     2   ar
     7     2     3   ar
     8     3     6    1
     9     6     7    1
    10     7     8    1
    11     8     9    1
    12     9    10   ar
    13    10    11   ar
    14    11    12   ar
    15    12    13   ar
    16    13    14   ar
    17    14    15    1
    18    15    18    1
    19    18    19    1
    20    19    20    1
    21    19    21    1
    22    19    22    1
    23    15    16   am
    24    16    17    2
    25     3     4   ar
    26     4     5   ar
    27    25    26   ar
    28    26    27   ar
    29    27    28   ar
    30    28    29    1
    31    29    30   ar
    32    30    31   ar
    33    31    32   ar
    34    32    33    1
    35    32    34   ar
    36    28    23   ar
    37    34    29   ar
    38     5     1   ar
    39    16     6    1
    40    14     9   ar
@<TRIPOS>MOLECULE
*****
 36 40 0 0 0
SMALL
GASTEIGER

@<TRIPOS>ATOM
      1 C         143.2392  139.6907  161.2592 C.ar    1  UNL1        0.1233
      2 C         142.8001  140.3826  162.5156 C.ar    1  UNL1        0.1180
      3 N         142.4256  139.3308  163.5173 N.ar    1  UNL1       -0.2233
      4 N         142.6334  137.9889  162.8800 N.ar    1  UNL1       -0.0634
      5 N         143.1362  138.2113  161.4844 N.ar    1  UNL1       -0.1287
      6 C         141.9304  139.5776  164.9116 C.3     1  UNL1        0.1834
      7 C         142.9600  140.0534  165.8932 C.3     1  UNL1        0.0386
      8 C         142.7845  140.3851  167.3455 C.3     1  UNL1        0.0317
      9 C         141.5362  140.3228  168.1749 C.ar    1  UNL1        0.0099
     10 C         141.7979  140.7412  169.5914 C.ar    1  UNL1        0.0001
     11 C         140.6785  140.7502  170.5897 C.ar    1  UNL1        0.0204
     12 C         139.2973  140.3409  170.1716 C.ar    1  UNL1        0.1003
     13 N         139.0356  139.9226  168.7551 N.ar    1  UNL1       -0.2291
     14 C         140.1550  139.9135  167.7568 C.ar    1  UNL1        0.1336
     15 N         139.6811  139.4654  166.4060 N.am    1  UNL1       -0.2340
     16 C         140.4712  139.3158  165.1398 C.2     1  UNL1        0.2531
     17 O         139.8580  138.8531  163.8514 O.2     1  UNL1       -0.2724
     18 C         138.2243  139.1212  166.3086 C.3     1  UNL1        0.2027
     19 C         137.7484  137.7549  166.7046 C.3     1  UNL1        0.4160
     20 F         137.2724  136.3887  167.1005 F       1  UNL1       -0.1682
     21 F         138.5313  136.9852  165.6826 F       1  UNL1       -0.1682
     22 F         136.9011  138.3626  167.7830 F       1  UNL1       -0.1682
     23 C         144.2871  140.2387  157.4709 C.ar    1  UNL1        0.1547
     24 C         143.8260  139.5687  158.7311 C.ar    1  UNL1        0.0400
     25 C         143.7004  140.3607  159.9989 C.ar    1  UNL1        0.0241
     26 C         144.0361  141.8226  160.0062 C.ar    1  UNL1        0.0033
     27 C         144.4973  142.4926  158.7459 C.ar    1  UNL1        0.0207
     28 C         144.6228  141.7006  157.4783 C.ar    1  UNL1        0.0994
     29 N         145.0841  142.3707  156.2179 N.ar    1  UNL1       -0.2839
     30 C         144.2008  142.9675  155.1626 C.ar    1  UNL1        0.1826
     31 N         145.0804  143.5271  154.0842 N.ar    1  UNL1       -0.2280
     32 C         146.5072  143.2762  154.4729 C.ar    1  UNL1        0.0786
     33 C         147.7191  143.6708  153.6818 C.3     1  UNL1        0.0538
     34 C         146.5095  142.5615  155.7917 C.ar    1  UNL1        0.0963
     35 C         143.1936  139.1475  155.3820 C.3     1  UNL1        0.2525
     36 O         144.4127  139.4467  156.2032 O.3     1  UNL1       -0.4700
@<TRIPOS>BOND
     1    35    36    1
     2    36    23    1
     3    23    24   ar
     4    24    25   ar
     5    25     1    1
     6     1     2   ar
     7     2     3   ar
     8     3     6    1
     9     6     7    1
    10     7     8    1
    11     8     9    1
    12     9    10   ar
    13    10    11   ar
    14    11    12   ar
    15    12    13   ar
    16    13    14   ar
    17    14    15    1
    18    15    18    1
    19    18    19    1
    20    19    20    1
    21    19    21    1
    22    19    22    1
    23    15    16   am
    24    16    17    2
    25     3     4   ar
    26     4     5   ar
    27    25    26   ar
    28    26    27   ar
    29    27    28   ar
    30    28    29    1
    31    29    30   ar
    32    30    31   ar
    33    31    32   ar
    34    32    33    1
    35    32    34   ar
    36    28    23   ar
    37    34    29   ar
    38     5     1   ar
    39    16     6    1
    40    14     9   ar
@<TRIPOS>MOLECULE
*****
 36 40 0 0 0
SMALL
GASTEIGER

@<TRIPOS>ATOM
      1 C         142.0352  138.6285  159.3346 C.ar    1  UNL1        0.1233
      2 C         141.7172  138.2801  160.7585 C.ar    1  UNL1        0.1180
      3 N         141.9529  139.5005  161.5982 N.ar    1  UNL1       -0.2233
      4 N         142.4166  140.6032  160.6932 N.ar    1  UNL1       -0.0634
      5 N         142.4674  140.0643  159.2942 N.ar    1  UNL1       -0.1287
      6 C         141.7590  139.6006  163.0822 C.3     1  UNL1        0.1834
      7 C         142.9428  139.2186  163.9205 C.3     1  UNL1        0.0386
      8 C         143.0669  139.2112  165.4153 C.3     1  UNL1        0.0317
      9 C         142.0378  139.5838  166.4411 C.ar    1  UNL1        0.0099
     10 C         142.5735  139.4344  167.8342 C.ar    1  UNL1        0.0001
     11 C         141.7020  139.7572  169.0115 C.ar    1  UNL1        0.0204
     12 C         140.2947  140.2294  168.7957 C.ar    1  UNL1        0.1003
     13 N         139.7590  140.3788  167.4027 N.ar    1  UNL1       -0.2291
     14 C         140.6305  140.0560  166.2254 C.ar    1  UNL1        0.1336
     15 N         139.9048  140.2722  164.9305 N.am    1  UNL1       -0.2340
     16 C         140.4069  140.0695  163.5317 C.2     1  UNL1        0.2531
     17 O         139.5603  140.3285  162.3209 O.2     1  UNL1       -0.2724
     18 C         138.4896  140.7548  165.0504 C.3     1  UNL1        0.2027
     19 C         138.1378  142.1552  164.6441 C.3     1  UNL1        0.4160
     20 F         137.7860  143.5556  164.2377 F       1  UNL1       -0.1682
     21 F         139.1333  142.8556  165.5207 F       1  UNL1       -0.1682
     22 F         137.0915  141.6216  163.7109 F       1  UNL1       -0.1682
     23 C         142.8858  135.7239  156.7676 C.ar    1  UNL1        0.1547
     24 C         142.9831  136.6488  157.9445 C.ar    1  UNL1        0.0400
     25 C         141.9380  137.7036  158.1578 C.ar    1  UNL1        0.0241
     26 C         140.7958  137.8333  157.1942 C.ar    1  UNL1        0.0033
     27 C         140.6986  136.9083  156.0174 C.ar    1  UNL1        0.0207
     28 C         141.7436  135.8537  155.8041 C.ar    1  UNL1        0.0994
     29 N         141.6463  134.9287  154.6272 N.ar    1  UNL1       -0.2839
     30 C         141.8797  135.2996  153.1926 C.ar    1  UNL1        0.1826
     31 N         141.6763  134.0706  152.3571 N.ar    1  UNL1       -0.2280
     32 C         141.3171  132.9401  153.2752 C.ar    1  UNL1        0.0786
     33 C         141.0273  131.5273  152.8629 C.3     1  UNL1        0.0538
     34 C         141.2986  133.4705  154.6782 C.ar    1  UNL1        0.0963
     35 C         144.0703  133.5425  157.5346 C.3     1  UNL1        0.2525
     36 O         143.9309  134.6692  156.5543 O.3     1  UNL1       -0.4700
@<TRIPOS>BOND
     1    35    36    1
     2    36    23    1
     3    23    24   ar
     4    24    25   ar
     5    25     1    1
     6     1     2   ar
     7     2     3   ar
     8     3     6    1
     9     6     7    1
    10     7     8    1
    11     8     9    1
    12     9    10   ar
    13    10    11   ar
    14    11    12   ar
    15    12    13   ar
    16    13    14   ar
    17    14    15    1
    18    15    18    1
    19    18    19    1
    20    19    20    1
    21    19    21    1
    22    19    22    1
    23    15    16   am
    24    16    17    2
    25     3     4   ar
    26     4     5   ar
    27    25    26   ar
    28    26    27   ar
    29    27    28   ar
    30    28    29    1
    31    29    30   ar
    32    30    31   ar
    33    31    32   ar
    34    32    33    1
    35    32    34   ar
    36    28    23   ar
    37    34    29   ar
    38     5     1   ar
    39    16     6    1
    40    14     9   ar
@<TRIPOS>MOLECULE
*****
 36 40 0 0 0
SMALL
GASTEIGER

@<TRIPOS>ATOM
      1 C         142.6741  137.7176  157.6595 C.ar    1  UNL1        0.1233
      2 C         141.8998  138.1718  158.8613 C.ar    1  UNL1        0.1180
      3 N         142.4856  139.4722  159.3258 N.ar    1  UNL1       -0.2233
      4 N         143.6219  139.8216  158.4112 N.ar    1  UNL1       -0.0634
      5 N         143.7384  138.7373  157.3814 N.ar    1  UNL1       -0.1287
      6 C         142.0173  140.2810  160.4990 C.3     1  UNL1        0.1834
      7 C         140.8238  141.1555  160.2518 C.3     1  UNL1        0.0386
      8 C         140.1227  142.0734  161.2089 C.3     1  UNL1        0.0317
      9 C         140.4418  142.3435  162.6495 C.ar    1  UNL1        0.0099
     10 C         139.4867  143.3345  163.2458 C.ar    1  UNL1        0.0001
     11 C         139.6307  143.7445  164.6815 C.ar    1  UNL1        0.0204
     12 C         140.7298  143.1635  165.5208 C.ar    1  UNL1        0.1003
     13 N         141.6849  142.1725  164.9245 N.ar    1  UNL1       -0.2291
     14 C         141.5409  141.7625  163.4888 C.ar    1  UNL1        0.1336
     15 N         142.5923  140.7678  163.0948 N.am    1  UNL1       -0.2340
     16 C         142.8043  140.1085  161.7643 C.2     1  UNL1        0.2531
     17 O         143.9081  139.1241  161.5140 O.2     1  UNL1       -0.2724
     18 C         143.5596  140.3814  164.1742 C.3     1  UNL1        0.2027
     19 C         144.9827  140.8512  164.1094 C.3     1  UNL1        0.4160
     20 F         146.4057  141.3211  164.0446 F       1  UNL1       -0.1682
     21 F         144.6854  142.3097  163.9236 F       1  UNL1       -0.1682
     22 F         145.4570  139.4395  164.2886 F       1  UNL1       -0.1682
     23 C         142.9959  133.9812  156.3614 C.ar    1  UNL1        0.1547
     24 C         143.2427  135.2348  157.1471 C.ar    1  UNL1        0.0400
     25 C         142.4273  136.4638  156.8739 C.ar    1  UNL1        0.0241
     26 C         141.3651  136.4391  155.8151 C.ar    1  UNL1        0.0033
     27 C         141.1183  135.1854  155.0295 C.ar    1  UNL1        0.0207
     28 C         141.9337  133.9564  155.3026 C.ar    1  UNL1        0.0994
     29 N         141.6868  132.7027  154.5169 N.ar    1  UNL1       -0.2839
     30 C         142.3025  132.3557  153.1938 C.ar    1  UNL1        0.1826
     31 N         141.7771  131.0144  152.7757 N.ar    1  UNL1       -0.2280
     32 C         140.8368  130.5324  153.8402 C.ar    1  UNL1        0.0786
     33 C         140.0844  129.2348  153.8305 C.3     1  UNL1        0.0538
     34 C         140.7810  131.5758  154.9164 C.ar    1  UNL1        0.0963
     35 C         144.7343  132.7118  157.8163 C.3     1  UNL1        0.2525
     36 O         143.8113  132.7521  156.6346 O.3     1  UNL1       -0.4700
@<TRIPOS>BOND
     1    35    36    1
     2    36    23    1
     3    23    24   ar
     4    24    25   ar
     5    25     1    1
     6     1     2   ar
     7     2     3   ar
     8     3     6    1
     9     6     7    1
    10     7     8    1
    11     8     9    1
    12     9    10   ar
    13    10    11   ar
    14    11    12   ar
    15    12    13   ar
    16    13    14   ar
    17    14    15    1
    18    15    18    1
    19    18    19    1
    20    19    20    1
    21    19    21    1
    22    19    22    1
    23    15    16   am
    24    16    17    2
    25     3     4   ar
    26     4     5   ar
    27    25    26   ar
    28    26    27   ar
    29    27    28   ar
    30    28    29    1
    31    29    30   ar
    32    30    31   ar
    33    31    32   ar
    34    32    33    1
    35    32    34   ar
    36    28    23   ar
    37    34    29   ar
    38     5     1   ar
    39    16     6    1
    40    14     9   ar
@<TRIPOS>MOLECULE
*****
 36 40 0 0 0
SMALL
GASTEIGER

@<TRIPOS>ATOM
      1 C         139.7148  143.2405  160.1747 C.ar    1  UNL1        0.1233
      2 C         140.4269  143.4754  161.4739 C.ar    1  UNL1        0.1180
      3 N         139.9208  142.4725  162.4679 N.ar    1  UNL1       -0.2233
      4 N         138.8958  141.6178  161.7830 N.ar    1  UNL1       -0.0634
      5 N         138.7685  142.0925  160.3658 N.ar    1  UNL1       -0.1287
      6 C         140.3621  142.3464  163.8959 C.3     1  UNL1        0.1834
      7 C         139.6031  143.1776  164.8874 C.3     1  UNL1        0.0386
      8 C         139.7986  143.2734  166.3715 C.3     1  UNL1        0.0317
      9 C         140.8013  142.5618  167.2307 C.ar    1  UNL1        0.0099
     10 C         140.6561  142.9442  168.6738 C.ar    1  UNL1        0.0001
     11 C         141.5657  142.3434  169.7041 C.ar    1  UNL1        0.0204
     12 C         142.6205  141.3601  169.2913 C.ar    1  UNL1        0.1003
     13 N         142.7658  140.9777  167.8482 N.ar    1  UNL1       -0.2291
     14 C         141.8562  141.5785  166.8179 C.ar    1  UNL1        0.1336
     15 N         142.1689  141.0641  165.4440 N.am    1  UNL1       -0.2340
     16 C         141.5040  141.4058  164.1436 C.2     1  UNL1        0.2531
     17 O         141.9273  140.8075  162.8348 O.2     1  UNL1       -0.2724
     18 C         143.2955  140.0774  165.3594 C.3     1  UNL1        0.2027
     19 C         144.4913  140.3760  164.5043 C.3     1  UNL1        0.4160
     20 F         145.6870  140.6744  163.6493 F       1  UNL1       -0.1682
     21 F         144.5459  139.0537  163.7982 F       1  UNL1       -0.1682
     22 F         144.5831  141.7449  165.1107 F       1  UNL1       -0.1682
     23 C         139.3744  144.4009  156.3949 C.ar    1  UNL1        0.1547
     24 C         139.1751  143.6241  157.6624 C.ar    1  UNL1        0.0400
     25 C         139.9141  144.0174  158.9071 C.ar    1  UNL1        0.0241
     26 C         140.8523  145.1875  158.8842 C.ar    1  UNL1        0.0033
     27 C         141.0515  145.9643  157.6166 C.ar    1  UNL1        0.0207
     28 C         140.3126  145.5710  156.3720 C.ar    1  UNL1        0.0994
     29 N         140.5119  146.3479  155.1044 N.ar    1  UNL1       -0.2839
     30 C         141.3490  145.9254  153.9336 C.ar    1  UNL1        0.1826
     31 N         141.2635  147.0000  152.8907 N.ar    1  UNL1       -0.2280
     32 C         140.3736  148.0868  153.4168 C.ar    1  UNL1        0.0786
     33 C         140.0116  149.3541  152.7006 C.3     1  UNL1        0.0538
     34 C         139.9090  147.6838  154.7850 C.ar    1  UNL1        0.0963
     35 C         137.3402  144.6798  154.8029 C.3     1  UNL1        0.2525
     36 O         138.6354  144.0076  155.1502 O.3     1  UNL1       -0.4700
@<TRIPOS>BOND
     1    35    36    1
     2    36    23    1
     3    23    24   ar
     4    24    25   ar
     5    25     1    1
     6     1     2   ar
     7     2     3   ar
     8     3     6    1
     9     6     7    1
    10     7     8    1
    11     8     9    1
    12     9    10   ar
    13    10    11   ar
    14    11    12   ar
    15    12    13   ar
    16    13    14   ar
    17    14    15    1
    18    15    18    1
    19    18    19    1
    20    19    20    1
    21    19    21    1
    22    19    22    1
    23    15    16   am
    24    16    17    2
    25     3     4   ar
    26     4     5   ar
    27    25    26   ar
    28    26    27   ar
    29    27    28   ar
    30    28    29    1
    31    29    30   ar
    32    30    31   ar
    33    31    32   ar
    34    32    33    1
    35    32    34   ar
    36    28    23   ar
    37    34    29   ar
    38     5     1   ar
    39    16     6    1
    40    14     9   ar
@<TRIPOS>MOLECULE
*****
 36 40 0 0 0
SMALL
GASTEIGER

@<TRIPOS>ATOM
      1 C         142.8994  137.1205  157.6525 C.ar    1  UNL1        0.1233
      2 C         142.6658  137.3568  159.1152 C.ar    1  UNL1        0.1180
      3 N         143.0295  138.7800  159.4188 N.ar    1  UNL1       -0.2233
      4 N         143.4880  139.4233  158.1437 N.ar    1  UNL1       -0.0634
      5 N         143.4076  138.3976  157.0520 N.ar    1  UNL1       -0.1287
      6 C         142.9490  139.4434  160.7617 C.3     1  UNL1        0.1834
      7 C         144.2467  139.9544  161.3140 C.3     1  UNL1        0.0386
      8 C         144.4972  140.6563  162.6158 C.3     1  UNL1        0.0317
      9 C         143.5121  141.0206  163.6867 C.ar    1  UNL1        0.0099
     10 C         144.1818  141.7189  164.8329 C.ar    1  UNL1        0.0001
     11 C         143.3726  142.1697  166.0126 C.ar    1  UNL1        0.0204
     12 C         141.8935  141.9221  166.0462 C.ar    1  UNL1        0.1003
     13 N         141.2238  141.2237  164.9001 N.ar    1  UNL1       -0.2291
     14 C         142.0330  140.7730  163.7203 C.ar    1  UNL1        0.1336
     15 N         141.1739  140.0999  162.6913 N.am    1  UNL1       -0.2340
     16 C         141.5814  139.5082  161.3746 C.2     1  UNL1        0.2531
     17 O         140.6036  138.8611  160.4391 O.2     1  UNL1       -0.2724
     18 C         139.7140  140.0061  163.0229 C.3     1  UNL1        0.2027
     19 C         139.1025  138.6753  163.3471 C.3     1  UNL1        0.4160
     20 F         138.4910  137.3446  163.6714 F       1  UNL1       -0.1682
     21 F         140.2469  138.1403  164.1558 F       1  UNL1       -0.1682
     22 F         137.8743  139.0509  162.5722 F       1  UNL1       -0.1682
     23 C         143.0568  133.2756  156.6823 C.ar    1  UNL1        0.1547
     24 C         143.2904  134.5629  157.4158 C.ar    1  UNL1        0.0400
     25 C         142.6658  135.8330  156.9191 C.ar    1  UNL1        0.0241
     26 C         141.8077  135.8158  155.6889 C.ar    1  UNL1        0.0033
     27 C         141.5742  134.5283  154.9554 C.ar    1  UNL1        0.0207
     28 C         142.1987  133.2583  155.4522 C.ar    1  UNL1        0.0994
     29 N         141.9651  131.9708  154.7186 N.ar    1  UNL1       -0.2839
     30 C         142.8967  131.3394  153.7270 C.ar    1  UNL1        0.1826
     31 N         142.2662  130.0672  153.2436 N.ar    1  UNL1       -0.2280
     32 C         140.9449  129.9122  153.9363 C.ar    1  UNL1        0.0786
     33 C         139.9792  128.7796  153.7502 C.3     1  UNL1        0.0538
     34 C         140.7588  131.0887  154.8480 C.ar    1  UNL1        0.0963
     35 C         145.1546  131.9522  157.4554 C.3     1  UNL1        0.2525
     36 O         143.6813  132.0054  157.1791 O.3     1  UNL1       -0.4700
@<TRIPOS>BOND
     1    35    36    1
     2    36    23    1
     3    23    24   ar
     4    24    25   ar
     5    25     1    1
     6     1     2   ar
     7     2     3   ar
     8     3     6    1
     9     6     7    1
    10     7     8    1
    11     8     9    1
    12     9    10   ar
    13    10    11   ar
    14    11    12   ar
    15    12    13   ar
    16    13    14   ar
    17    14    15    1
    18    15    18    1
    19    18    19    1
    20    19    20    1
    21    19    21    1
    22    19    22    1
    23    15    16   am
    24    16    17    2
    25     3     4   ar
    26     4     5   ar
    27    25    26   ar
    28    26    27   ar
    29    27    28   ar
    30    28    29    1
    31    29    30   ar
    32    30    31   ar
    33    31    32   ar
    34    32    33    1
    35    32    34   ar
    36    28    23   ar
    37    34    29   ar
    38     5     1   ar
    39    16     6    1
    40    14     9   ar
@<TRIPOS>MOLECULE
*****
 36 40 0 0 0
SMALL
GASTEIGER

@<TRIPOS>ATOM
      1 C         140.5493  139.4218  159.7103 C.ar    1  UNL1        0.1233
      2 C         140.8098  139.0779  161.1469 C.ar    1  UNL1        0.1180
      3 N         140.4437  140.2687  161.9823 N.ar    1  UNL1       -0.2233
      4 N         139.9569  141.3485  161.0620 N.ar    1  UNL1       -0.0634
      5 N         140.0221  140.8251  159.6578 N.ar    1  UNL1       -0.1287
      6 C         140.5464  140.3631  163.4758 C.3     1  UNL1        0.1834
      7 C         139.3679  139.8416  164.2435 C.3     1  UNL1        0.0386
      8 C         139.1661  139.7947  165.7291 C.3     1  UNL1        0.0317
      9 C         140.0927  140.2578  166.8140 C.ar    1  UNL1        0.0099
     10 C         139.5029  140.0274  168.1738 C.ar    1  UNL1        0.0001
     11 C         140.2705  140.4213  169.4007 C.ar    1  UNL1        0.0204
     12 C         141.6280  141.0456  169.2679 C.ar    1  UNL1        0.1003
     13 N         142.2178  141.2759  167.9082 N.ar    1  UNL1       -0.2291
     14 C         141.4501  140.8821  166.6812 C.ar    1  UNL1        0.1336
     15 N         142.2161  141.1975  165.4307 N.am    1  UNL1       -0.2340
     16 C         141.8140  140.9666  164.0042 C.2     1  UNL1        0.2531
     17 O         142.6909  141.3361  162.8446 O.2     1  UNL1       -0.2724
     18 C         143.5624  141.8271  165.6336 C.3     1  UNL1        0.2027
     19 C         143.8063  143.2372  165.1839 C.3     1  UNL1        0.4160
     20 F         144.0502  144.6473  164.7343 F       1  UNL1       -0.1682
     21 F         142.3899  143.7157  165.3061 F       1  UNL1       -0.1682
     22 F         145.2633  142.9283  165.0056 F       1  UNL1       -0.1682
     23 C         139.8461  137.2024  156.4963 C.ar    1  UNL1        0.1547
     24 C         139.6193  138.1036  157.6737 C.ar    1  UNL1        0.0400
     25 C         140.7760  138.5205  158.5328 C.ar    1  UNL1        0.0241
     26 C         142.1595  138.0362  158.2146 C.ar    1  UNL1        0.0033
     27 C         142.3863  137.1350  157.0372 C.ar    1  UNL1        0.0207
     28 C         141.2296  136.7180  156.1781 C.ar    1  UNL1        0.0994
     29 N         141.4565  135.8167  155.0006 N.ar    1  UNL1       -0.2839
     30 C         141.6630  136.2556  153.5812 C.ar    1  UNL1        0.1826
     31 N         141.8507  135.0284  152.7393 N.ar    1  UNL1       -0.2280
     32 C         141.7603  133.8312  153.6383 C.ar    1  UNL1        0.0786
     33 C         141.8906  132.3983  153.2143 C.3     1  UNL1        0.0538
     34 C         141.5166  134.3184  155.0360 C.ar    1  UNL1        0.0963
     35 C         138.1892  137.6991  154.5578 C.3     1  UNL1        0.2525
     36 O         138.6894  136.7854  155.6372 O.3     1  UNL1       -0.4700
@<TRIPOS>BOND
     1    35    36    1
     2    36    23    1
     3    23    24   ar
     4    24    25   ar
     5    25     1    1
     6     1     2   ar
     7     2     3   ar
     8     3     6    1
     9     6     7    1
    10     7     8    1
    11     8     9    1
    12     9    10   ar
    13    10    11   ar
    14    11    12   ar
    15    12    13   ar
    16    13    14   ar
    17    14    15    1
    18    15    18    1
    19    18    19    1
    20    19    20    1
    21    19    21    1
    22    19    22    1
    23    15    16   am
    24    16    17    2
    25     3     4   ar
    26     4     5   ar
    27    25    26   ar
    28    26    27   ar
    29    27    28   ar
    30    28    29    1
    31    29    30   ar
    32    30    31   ar
    33    31    32   ar
    34    32    33    1
    35    32    34   ar
    36    28    23   ar
    37    34    29   ar
    38     5     1   ar
    39    16     6    1
    40    14     9   ar
@<TRIPOS>MOLECULE
*****
 36 40 0 0 0
SMALL
GASTEIGER

@<TRIPOS>ATOM
      1 C         142.4814  138.9793  160.9046 C.ar    1  UNL1        0.1233
      2 C         141.5409  138.3844  159.8988 C.ar    1  UNL1        0.1180
      3 N         142.2173  138.4092  158.5603 N.ar    1  UNL1       -0.2233
      4 N         143.5759  139.0195  158.7388 N.ar    1  UNL1       -0.0634
      5 N         143.7391  139.3718  160.1876 N.ar    1  UNL1       -0.1287
      6 C         141.6370  137.9113  157.2698 C.3     1  UNL1        0.1834
      7 C         140.4961  138.7130  156.7170 C.3     1  UNL1        0.0386
      8 C         139.7108  138.4788  155.4606 C.3     1  UNL1        0.0317
      9 C         139.8724  137.3852  154.4467 C.ar    1  UNL1        0.0099
     10 C         138.8765  137.5188  153.3331 C.ar    1  UNL1        0.0001
     11 C         138.8674  136.5228  152.2116 C.ar    1  UNL1        0.0204
     12 C         139.8543  135.3932  152.2037 C.ar    1  UNL1        0.1003
     13 N         140.8503  135.2596  153.3173 N.ar    1  UNL1       -0.2291
     14 C         140.8594  136.2556  154.4388 C.ar    1  UNL1        0.1336
     15 N         141.9284  135.9407  155.4429 N.am    1  UNL1       -0.2340
     16 C         142.2745  136.6775  156.7028 C.2     1  UNL1        0.2531
     17 O         143.3797  136.2424  157.6188 O.2     1  UNL1       -0.2724
     18 C         142.7614  134.7287  155.1480 C.3     1  UNL1        0.2027
     19 C         142.6124  133.4940  155.9868 C.3     1  UNL1        0.4160
     20 F         142.4634  132.2594  156.8255 F       1  UNL1       -0.1682
     21 F         141.1488  133.2795  155.7381 F       1  UNL1       -0.1682
     22 F         144.0688  133.5585  156.3404 F       1  UNL1       -0.1682
     23 C         142.0449  140.6821  164.4626 C.ar    1  UNL1        0.1547
     24 C         142.3147  140.5101  162.9972 C.ar    1  UNL1        0.0400
     25 C         142.2115  139.1514  162.3701 C.ar    1  UNL1        0.0241
     26 C         141.8385  137.9648  163.2084 C.ar    1  UNL1        0.0033
     27 C         141.5686  138.1369  164.6738 C.ar    1  UNL1        0.0207
     28 C         141.6718  139.4956  165.3009 C.ar    1  UNL1        0.0994
     29 N         141.4019  139.6676  166.7664 N.ar    1  UNL1       -0.2839
     30 C         142.4028  139.5070  167.8721 C.ar    1  UNL1        0.1826
     31 N         141.7032  139.7706  169.1725 N.ar    1  UNL1       -0.2280
     32 C         140.2700  140.0942  168.8706 C.ar    1  UNL1        0.0786
     33 C         139.2092  140.4237  169.8786 C.3     1  UNL1        0.0538
     34 C         140.0838  140.0306  167.3835 C.ar    1  UNL1        0.0963
     35 C         143.4465  142.4937  165.6888 C.3     1  UNL1        0.2525
     36 O         142.1481  142.0409  165.0897 O.3     1  UNL1       -0.4700
@<TRIPOS>BOND
     1    35    36    1
     2    36    23    1
     3    23    24   ar
     4    24    25   ar
     5    25     1    1
     6     1     2   ar
     7     2     3   ar
     8     3     6    1
     9     6     7    1
    10     7     8    1
    11     8     9    1
    12     9    10   ar
    13    10    11   ar
    14    11    12   ar
    15    12    13   ar
    16    13    14   ar
    17    14    15    1
    18    15    18    1
    19    18    19    1
    20    19    20    1
    21    19    21    1
    22    19    22    1
    23    15    16   am
    24    16    17    2
    25     3     4   ar
    26     4     5   ar
    27    25    26   ar
    28    26    27   ar
    29    27    28   ar
    30    28    29    1
    31    29    30   ar
    32    30    31   ar
    33    31    32   ar
    34    32    33    1
    35    32    34   ar
    36    28    23   ar
    37    34    29   ar
    38     5     1   ar
    39    16     6    1
    40    14     9   ar
