@<TRIPOS>MOLECULE
*****
 38 42 0 0 0
SMALL
GASTEIGER

@<TRIPOS>ATOM
      1 N         141.8053  141.5989  167.8289 N.ar    1  UNL1       -0.2852
      2 C         141.2892  142.1941  169.1054 C.ar    1  UNL1        0.1023
      3 C         141.0437  141.0745  170.0730 C.ar    1  UNL1        0.1197
      4 N         141.4081  139.7873  169.3946 N.ar    1  UNL1       -0.2207
      5 C         141.8788  140.1114  168.0077 C.ar    1  UNL1        0.2024
      6 C         142.3417  139.1217  166.9799 C.2     1  UNL1        0.2837
      7 O         143.7081  138.5121  167.0877 O.2     1  UNL1       -0.2666
      8 N         141.4383  138.7414  165.8444 N.am    1  UNL1       -0.2735
      9 C         141.9012  137.7517  164.8168 C.3     1  UNL1        0.0955
     10 C         140.9978  137.3715  163.6812 C.3     1  UNL1        0.0410
     11 C         139.6314  137.9810  163.5735 C.3     1  UNL1        0.0724
     12 C         139.1685  138.9708  164.6012 C.3     1  UNL1        0.0410
     13 C         140.0719  139.3510  165.7367 C.3     1  UNL1        0.0955
     14 N         138.7280  137.6009  162.4381 N.pl3   1  UNL1       -0.3339
     15 H         138.1345  136.8198  162.5215 H       1  UNL1        0.1468
     16 C         138.7289  138.4107  161.1754 C.ar    1  UNL1        0.0469
     17 C         137.6361  139.4065  160.9224 C.ar    1  UNL1        0.0144
     18 C         137.6369  140.2163  159.6599 C.ar    1  UNL1        0.0036
     19 C         138.7306  140.0303  158.6502 C.ar    1  UNL1        0.0297
     20 C         139.8234  139.0344  158.9032 C.ar    1  UNL1        0.1414
     21 F         140.9170  138.8483  157.8936 F       1  UNL1       -0.2041
     22 C         139.8225  138.2246  160.1658 C.ar    1  UNL1        0.0439
     23 C         142.9347  143.8758  164.1155 C.ar    1  UNL1       -0.0060
     24 C         144.0037  143.3517  165.0281 C.ar    1  UNL1       -0.0014
     25 C         143.6272  142.5927  166.2659 C.ar    1  UNL1        0.0173
     26 C         142.1818  142.3578  166.5911 C.ar    1  UNL1        0.0655
     27 C         141.1129  142.8820  165.6785 C.ar    1  UNL1        0.0173
     28 C         141.4894  143.6409  164.4407 C.ar    1  UNL1       -0.0014
     29 C         143.3112  144.6348  162.8776 C.3     1  UNL1        0.0992
     30 C         144.1753  141.4850  158.8363 C.3     1  UNL1        0.0186
     31 C         143.3456  142.5389  159.5077 C.3     1  UNL1        0.0702
     32 C         143.7432  143.0599  160.8569 C.3     1  UNL1        0.0882
     33 N         142.9135  144.1138  161.5284 N.3     1  UNL1       -0.2666
     34 C         141.6861  144.6467  160.8506 C.3     1  UNL1        0.0882
     35 C         141.2884  144.1257  159.5014 C.3     1  UNL1        0.0702
     36 C         140.0609  144.6586  158.8236 C.3     1  UNL1        0.0186
     37 N         142.1181  143.0718  158.8300 N.3     1  UNL1       -0.2974
     38 H         142.4202  143.4599  157.9364 H       1  UNL1        0.1232
@<TRIPOS>BOND
     1    31    30    1
     2    31    32    1
     3    32    33    1
     4    33    29    1
     5    29    23    1
     6    23    24   ar
     7    24    25   ar
     8    25    26   ar
     9    26     1    1
    10     1     2   ar
    11     2     3   ar
    12     3     4   ar
    13     4     5   ar
    14     5     6    1
    15     6     7    2
    16     6     8   am
    17     8     9    1
    18     9    10    1
    19    10    11    1
    20    11    14    1
    21    14    16    1
    22    16    17   ar
    23    17    18   ar
    24    18    19   ar
    25    19    20   ar
    26    20    21    1
    27    20    22   ar
    28    11    12    1
    29    12    13    1
    30    26    27   ar
    31    27    28   ar
    32    33    34    1
    33    34    35    1
    34    35    36    1
    35    35    37    1
    36    37    31    1
    37    28    23   ar
    38     5     1   ar
    39    13     8    1
    40    22    16   ar
    41    14    15    1
    42    37    38    1
@<TRIPOS>MOLECULE
*****
 38 42 0 0 0
SMALL
GASTEIGER

@<TRIPOS>ATOM
      1 N         140.9432  140.1947  167.9226 N.ar    1  UNL1       -0.2852
      2 C         141.2117  140.5347  169.3586 C.ar    1  UNL1        0.1023
      3 C         139.9331  140.3598  170.1233 C.ar    1  UNL1        0.1197
      4 N         138.8744  139.9117  169.1598 N.ar    1  UNL1       -0.2207
      5 C         139.4987  139.8097  167.7997 C.ar    1  UNL1        0.2024
      6 C         138.8009  139.3954  166.5381 C.2     1  UNL1        0.2837
      7 O         138.3470  137.9763  166.3634 O.2     1  UNL1       -0.2666
      8 N         138.5569  140.3999  165.4512 N.am    1  UNL1       -0.2735
      9 C         137.8592  139.9856  164.1898 C.3     1  UNL1        0.0955
     10 C         137.6152  140.9903  163.1029 C.3     1  UNL1        0.0410
     11 C         138.0691  142.4092  163.2776 C.3     1  UNL1        0.0724
     12 C         138.7669  142.8236  164.5391 C.3     1  UNL1        0.0410
     13 C         139.0108  141.8190  165.6259 C.3     1  UNL1        0.0955
     14 N         137.8252  143.4139  162.1908 N.pl3   1  UNL1       -0.3339
     15 H         136.9319  143.8128  162.0807 H       1  UNL1        0.1468
     16 C         138.9423  143.8106  161.2717 C.ar    1  UNL1        0.0469
     17 C         139.7125  145.0719  161.5284 C.ar    1  UNL1        0.0144
     18 C         140.8296  145.4687  160.6094 C.ar    1  UNL1        0.0036
     19 C         141.1765  144.6042  159.4336 C.ar    1  UNL1        0.0297
     20 C         140.4062  143.3430  159.1769 C.ar    1  UNL1        0.1414
     21 F         140.7531  142.4785  158.0012 F       1  UNL1       -0.2041
     22 C         139.2891  142.9462  160.0960 C.ar    1  UNL1        0.0439
     23 C         143.9444  140.3096  164.5715 C.ar    1  UNL1       -0.0060
     24 C         143.3987  138.9949  165.0448 C.ar    1  UNL1       -0.0014
     25 C         142.3983  138.9566  166.1619 C.ar    1  UNL1        0.0173
     26 C         141.9436  140.2330  166.8055 C.ar    1  UNL1        0.0655
     27 C         142.4893  141.5475  166.3321 C.ar    1  UNL1        0.0173
     28 C         143.4897  141.5858  165.2151 C.ar    1  UNL1       -0.0014
     29 C         144.9448  140.3479  163.4544 C.3     1  UNL1        0.0992
     30 C         144.2050  142.7706  158.9175 C.3     1  UNL1        0.0186
     31 C         144.1087  141.5336  159.7605 C.3     1  UNL1        0.0702
     32 C         144.5749  141.5592  161.1859 C.3     1  UNL1        0.0882
     33 N         144.4786  140.3222  162.0289 N.3     1  UNL1       -0.2666
     34 C         143.9161  139.0596  161.4464 C.3     1  UNL1        0.0882
     35 C         143.4499  139.0339  160.0209 C.3     1  UNL1        0.0702
     36 C         142.8874  137.7713  159.4383 C.3     1  UNL1        0.0186
     37 N         143.5462  140.2709  159.1780 N.3     1  UNL1       -0.2974
     38 H         142.6003  140.4875  158.8637 H       1  UNL1        0.1232
@<TRIPOS>BOND
     1    31    30    1
     2    31    32    1
     3    32    33    1
     4    33    29    1
     5    29    23    1
     6    23    24   ar
     7    24    25   ar
     8    25    26   ar
     9    26     1    1
    10     1     2   ar
    11     2     3   ar
    12     3     4   ar
    13     4     5   ar
    14     5     6    1
    15     6     7    2
    16     6     8   am
    17     8     9    1
    18     9    10    1
    19    10    11    1
    20    11    14    1
    21    14    16    1
    22    16    17   ar
    23    17    18   ar
    24    18    19   ar
    25    19    20   ar
    26    20    21    1
    27    20    22   ar
    28    11    12    1
    29    12    13    1
    30    26    27   ar
    31    27    28   ar
    32    33    34    1
    33    34    35    1
    34    35    36    1
    35    35    37    1
    36    37    31    1
    37    28    23   ar
    38     5     1   ar
    39    13     8    1
    40    22    16   ar
    41    14    15    1
    42    37    38    1
@<TRIPOS>MOLECULE
*****
 38 42 0 0 0
SMALL
GASTEIGER

@<TRIPOS>ATOM
      1 N         140.4718  140.9945  167.5413 N.ar    1  UNL1       -0.2852
      2 C         139.7816  140.3291  168.6949 C.ar    1  UNL1        0.1023
      3 C         140.8313  139.8886  169.6716 C.ar    1  UNL1        0.1197
      4 N         142.1703  140.2817  169.1217 N.ar    1  UNL1       -0.2207
      5 C         141.9481  140.9652  167.8051 C.ar    1  UNL1        0.2024
      6 C         143.0150  141.5217  166.9095 C.2     1  UNL1        0.2837
      7 O         143.7214  142.7910  167.2835 O.2     1  UNL1       -0.2666
      8 N         143.3756  140.8090  165.6398 N.am    1  UNL1       -0.2735
      9 C         144.4425  141.3654  164.7443 C.3     1  UNL1        0.0955
     10 C         144.8030  140.6526  163.4746 C.3     1  UNL1        0.0410
     11 C         144.0967  139.3834  163.1006 C.3     1  UNL1        0.0724
     12 C         143.0297  138.8268  163.9962 C.3     1  UNL1        0.0410
     13 C         142.6692  139.5396  165.2658 C.3     1  UNL1        0.0955
     14 N         144.4572  138.6705  161.8310 N.pl3   1  UNL1       -0.3339
     15 H         145.2072  138.0329  161.8204 H       1  UNL1        0.1468
     16 C         143.6750  138.9293  160.5775 C.ar    1  UNL1        0.0469
     17 C         142.9623  137.8015  159.8919 C.ar    1  UNL1        0.0144
     18 C         142.1802  138.0603  158.6385 C.ar    1  UNL1        0.0036
     19 C         142.1107  139.4469  158.0705 C.ar    1  UNL1        0.0297
     20 C         142.8234  140.5747  158.7561 C.ar    1  UNL1        0.1414
     21 F         142.7540  141.9613  158.1882 F       1  UNL1       -0.2041
     22 C         143.6056  140.3159  160.0096 C.ar    1  UNL1        0.0439
     23 C         138.4658  142.7672  163.9242 C.ar    1  UNL1       -0.0060
     24 C         139.3016  143.6342  164.8186 C.ar    1  UNL1       -0.0014
     25 C         139.9703  143.0432  166.0243 C.ar    1  UNL1        0.0173
     26 C         139.8032  141.5854  166.3356 C.ar    1  UNL1        0.0655
     27 C         138.9674  140.7185  165.4411 C.ar    1  UNL1        0.0173
     28 C         138.2987  141.3094  164.2354 C.ar    1  UNL1       -0.0014
     29 C         137.7971  143.3581  162.7185 C.3     1  UNL1        0.0992
     30 C         138.4735  141.1901  158.0449 C.3     1  UNL1        0.0186
     31 C         138.8269  142.2451  159.0509 C.3     1  UNL1        0.0702
     32 C         138.1354  142.2741  160.3817 C.3     1  UNL1        0.0882
     33 N         138.4887  143.3292  161.3877 N.3     1  UNL1       -0.2666
     34 C         139.5336  144.3552  161.0629 C.3     1  UNL1        0.0882
     35 C         140.2251  144.3262  159.7322 C.3     1  UNL1        0.0702
     36 C         141.2700  145.3523  159.4074 C.3     1  UNL1        0.0186
     37 N         139.8717  143.2712  158.7262 N.3     1  UNL1       -0.2974
     38 H         140.7308  142.7615  158.5199 H       1  UNL1        0.1232
@<TRIPOS>BOND
     1    31    30    1
     2    31    32    1
     3    32    33    1
     4    33    29    1
     5    29    23    1
     6    23    24   ar
     7    24    25   ar
     8    25    26   ar
     9    26     1    1
    10     1     2   ar
    11     2     3   ar
    12     3     4   ar
    13     4     5   ar
    14     5     6    1
    15     6     7    2
    16     6     8   am
    17     8     9    1
    18     9    10    1
    19    10    11    1
    20    11    14    1
    21    14    16    1
    22    16    17   ar
    23    17    18   ar
    24    18    19   ar
    25    19    20   ar
    26    20    21    1
    27    20    22   ar
    28    11    12    1
    29    12    13    1
    30    26    27   ar
    31    27    28   ar
    32    33    34    1
    33    34    35    1
    34    35    36    1
    35    35    37    1
    36    37    31    1
    37    28    23   ar
    38     5     1   ar
    39    13     8    1
    40    22    16   ar
    41    14    15    1
    42    37    38    1
@<TRIPOS>MOLECULE
*****
 38 42 0 0 0
SMALL
GASTEIGER

@<TRIPOS>ATOM
      1 N         140.4473  141.0026  167.5002 N.ar    1  UNL1       -0.2852
      2 C         139.7434  140.3292  168.6409 C.ar    1  UNL1        0.1023
      3 C         140.7814  139.8822  169.6271 C.ar    1  UNL1        0.1197
      4 N         142.1268  140.2793  169.0960 N.ar    1  UNL1       -0.2207
      5 C         141.9203  140.9717  167.7815 C.ar    1  UNL1        0.2024
      6 C         142.9978  141.5344  166.9026 C.2     1  UNL1        0.2837
      7 O         143.7174  142.7871  167.3068 O.2     1  UNL1       -0.2666
      8 N         143.3557  140.8447  165.6196 N.am    1  UNL1       -0.2735
      9 C         144.4331  141.4075  164.7408 C.3     1  UNL1        0.0955
     10 C         144.7911  140.7177  163.4577 C.3     1  UNL1        0.0410
     11 C         144.0715  139.4651  163.0536 C.3     1  UNL1        0.0724
     12 C         142.9940  138.9023  163.9325 C.3     1  UNL1        0.0410
     13 C         142.6361  139.5921  165.2155 C.3     1  UNL1        0.0955
     14 N         144.4294  138.7753  161.7706 N.pl3   1  UNL1       -0.3339
     15 H         145.1430  138.0973  161.7588 H       1  UNL1        0.1468
     16 C         143.6999  139.1186  160.5057 C.ar    1  UNL1        0.0469
     17 C         143.6679  140.5374  160.0198 C.ar    1  UNL1        0.0144
     18 C         142.9385  140.8807  158.7550 C.ar    1  UNL1        0.0036
     19 C         142.2409  139.8053  157.9759 C.ar    1  UNL1        0.0297
     20 C         142.2729  138.3865  158.4618 C.ar    1  UNL1        0.1414
     21 F         141.5754  137.3111  157.6828 F       1  UNL1       -0.2041
     22 C         143.0024  138.0432  159.7267 C.ar    1  UNL1        0.0439
     23 C         138.4845  142.7998  163.8715 C.ar    1  UNL1       -0.0060
     24 C         138.2977  141.3440  164.1816 C.ar    1  UNL1       -0.0014
     25 C         138.9520  140.7450  165.3912 C.ar    1  UNL1        0.0173
     26 C         139.7930  141.6016  166.2906 C.ar    1  UNL1        0.0655
     27 C         139.9797  143.0573  165.9805 C.ar    1  UNL1        0.0173
     28 C         139.3254  143.6563  164.7709 C.ar    1  UNL1       -0.0014
     29 C         137.8302  143.3988  162.6619 C.3     1  UNL1        0.0992
     30 C         141.3004  145.3237  159.3075 C.3     1  UNL1        0.0186
     31 C         140.2550  144.3053  159.6538 C.3     1  UNL1        0.0702
     32 C         139.5653  144.3612  160.9846 C.3     1  UNL1        0.0882
     33 N         138.5199  143.3428  161.3310 N.3     1  UNL1       -0.2666
     34 C         138.1643  142.2684  160.3466 C.3     1  UNL1        0.0882
     35 C         138.8540  142.2125  159.0158 C.3     1  UNL1        0.0702
     36 C         138.4984  141.1380  158.0313 C.3     1  UNL1        0.0186
     37 N         139.8994  143.2309  158.6694 N.3     1  UNL1       -0.2974
     38 H         139.5826  143.7014  157.8217 H       1  UNL1        0.1232
@<TRIPOS>BOND
     1    31    30    1
     2    31    32    1
     3    32    33    1
     4    33    29    1
     5    29    23    1
     6    23    24   ar
     7    24    25   ar
     8    25    26   ar
     9    26     1    1
    10     1     2   ar
    11     2     3   ar
    12     3     4   ar
    13     4     5   ar
    14     5     6    1
    15     6     7    2
    16     6     8   am
    17     8     9    1
    18     9    10    1
    19    10    11    1
    20    11    14    1
    21    14    16    1
    22    16    17   ar
    23    17    18   ar
    24    18    19   ar
    25    19    20   ar
    26    20    21    1
    27    20    22   ar
    28    11    12    1
    29    12    13    1
    30    26    27   ar
    31    27    28   ar
    32    33    34    1
    33    34    35    1
    34    35    36    1
    35    35    37    1
    36    37    31    1
    37    28    23   ar
    38     5     1   ar
    39    13     8    1
    40    22    16   ar
    41    14    15    1
    42    37    38    1
@<TRIPOS>MOLECULE
*****
 38 42 0 0 0
SMALL
GASTEIGER

@<TRIPOS>ATOM
      1 N         143.9775  141.7836  157.5801 N.ar    1  UNL1       -0.2852
      2 C         145.1786  142.3525  156.8847 C.ar    1  UNL1        0.1023
      3 C         145.9142  141.2211  156.2299 C.ar    1  UNL1        0.1197
      4 N         145.1678  139.9530  156.5206 N.ar    1  UNL1       -0.2207
      5 C         143.9708  140.3006  157.3551 C.ar    1  UNL1        0.2024
      6 C         142.9469  139.3348  157.8736 C.2     1  UNL1        0.2837
      7 O         142.0270  138.6328  156.9190 O.2     1  UNL1       -0.2666
      8 N         142.8428  139.0709  159.3465 N.am    1  UNL1       -0.2735
      9 C         141.8189  138.1051  159.8649 C.3     1  UNL1        0.0955
     10 C         141.7148  137.8412  161.3379 C.3     1  UNL1        0.0410
     11 C         142.6347  138.5432  162.2924 C.3     1  UNL1        0.0724
     12 C         143.6586  139.5091  161.7740 C.3     1  UNL1        0.0410
     13 C         143.7627  139.7729  160.3011 C.3     1  UNL1        0.0955
     14 N         142.5306  138.2794  163.7653 N.pl3   1  UNL1       -0.3339
     15 H         143.3062  137.9259  164.2581 H       1  UNL1        0.1468
     16 C         141.2450  138.5541  164.4875 C.ar    1  UNL1        0.0469
     17 C         140.1794  137.5002  164.5494 C.ar    1  UNL1        0.0144
     18 C         138.8938  137.7749  165.2715 C.ar    1  UNL1        0.0036
     19 C         138.6736  139.1036  165.9319 C.ar    1  UNL1        0.0297
     20 C         139.7391  140.1576  165.8700 C.ar    1  UNL1        0.1414
     21 F         139.5189  141.4863  166.5303 F       1  UNL1       -0.2041
     22 C         141.0248  139.8828  165.1478 C.ar    1  UNL1        0.0439
     23 C         140.9293  144.1164  159.9290 C.ar    1  UNL1       -0.0060
     24 C         142.2894  143.8630  160.5088 C.ar    1  UNL1       -0.0014
     25 C         143.3055  143.0854  159.7258 C.ar    1  UNL1        0.0173
     26 C         142.9614  142.5612  158.3631 C.ar    1  UNL1        0.0655
     27 C         141.6014  142.8146  157.7834 C.ar    1  UNL1        0.0173
     28 C         140.5854  143.5922  158.5664 C.ar    1  UNL1       -0.0014
     29 C         139.9133  144.8939  160.7120 C.3     1  UNL1        0.0992
     30 C         137.3139  140.9196  162.8210 C.3     1  UNL1        0.0186
     31 C         137.9362  142.2785  162.9482 C.3     1  UNL1        0.0702
     32 C         138.6136  142.9068  161.7665 C.3     1  UNL1        0.0882
     33 N         139.2359  144.2656  161.8938 N.3     1  UNL1       -0.2666
     34 C         139.1809  144.9962  163.2026 C.3     1  UNL1        0.0882
     35 C         138.5035  144.3679  164.3843 C.3     1  UNL1        0.0702
     36 C         138.4484  145.0985  165.6933 C.3     1  UNL1        0.0186
     37 N         137.8811  143.0090  164.2571 N.3     1  UNL1       -0.2974
     38 H         136.8947  143.1135  164.4947 H       1  UNL1        0.1232
@<TRIPOS>BOND
     1    31    30    1
     2    31    32    1
     3    32    33    1
     4    33    29    1
     5    29    23    1
     6    23    24   ar
     7    24    25   ar
     8    25    26   ar
     9    26     1    1
    10     1     2   ar
    11     2     3   ar
    12     3     4   ar
    13     4     5   ar
    14     5     6    1
    15     6     7    2
    16     6     8   am
    17     8     9    1
    18     9    10    1
    19    10    11    1
    20    11    14    1
    21    14    16    1
    22    16    17   ar
    23    17    18   ar
    24    18    19   ar
    25    19    20   ar
    26    20    21    1
    27    20    22   ar
    28    11    12    1
    29    12    13    1
    30    26    27   ar
    31    27    28   ar
    32    33    34    1
    33    34    35    1
    34    35    36    1
    35    35    37    1
    36    37    31    1
    37    28    23   ar
    38     5     1   ar
    39    13     8    1
    40    22    16   ar
    41    14    15    1
    42    37    38    1
@<TRIPOS>MOLECULE
*****
 38 42 0 0 0
SMALL
GASTEIGER

@<TRIPOS>ATOM
      1 N         140.9290  144.4550  158.4126 N.ar    1  UNL1       -0.2852
      2 C         140.8396  145.7823  157.7197 C.ar    1  UNL1        0.1023
      3 C         139.8426  145.6576  156.6059 C.ar    1  UNL1        0.1197
      4 N         139.3159  144.2531  156.6105 N.ar    1  UNL1       -0.2207
      5 C         139.9873  143.5099  157.7271 C.ar    1  UNL1        0.2024
      6 C         139.7573  142.0737  158.0938 C.2     1  UNL1        0.2837
      7 O         140.1622  140.9836  157.1461 O.2     1  UNL1       -0.2666
      8 N         139.1226  141.7274  159.4080 N.am    1  UNL1       -0.2735
      9 C         138.8927  140.2913  159.7746 C.3     1  UNL1        0.0955
     10 C         138.2579  139.9450  161.0889 C.3     1  UNL1        0.0410
     11 C         137.8531  141.0351  162.0365 C.3     1  UNL1        0.0724
     12 C         138.0830  142.4714  161.6699 C.3     1  UNL1        0.0410
     13 C         138.7177  142.8175  160.3556 C.3     1  UNL1        0.0955
     14 N         137.2183  140.6889  163.3507 N.pl3   1  UNL1       -0.3339
     15 H         136.2608  140.4635  163.3907 H       1  UNL1        0.1468
     16 C         138.0424  140.6863  164.6041 C.ar    1  UNL1        0.0469
     17 C         138.1489  139.4381  165.4290 C.ar    1  UNL1        0.0144
     18 C         138.9730  139.4355  166.6823 C.ar    1  UNL1        0.0036
     19 C         139.6906  140.6811  167.1108 C.ar    1  UNL1        0.0297
     20 C         139.5841  141.9293  166.2858 C.ar    1  UNL1        0.1414
     21 F         140.3016  143.1749  166.7142 F       1  UNL1       -0.2041
     22 C         138.7600  141.9319  165.0325 C.ar    1  UNL1        0.0439
     23 C         143.5603  143.4795  161.9304 C.ar    1  UNL1       -0.0060
     24 C         143.8504  142.8780  160.5872 C.ar    1  UNL1       -0.0014
     25 C         142.9733  143.2031  159.4146 C.ar    1  UNL1        0.0173
     26 C         141.8061  144.1298  159.5852 C.ar    1  UNL1        0.0655
     27 C         141.5161  144.7314  160.9283 C.ar    1  UNL1        0.0173
     28 C         142.3932  144.4062  162.1009 C.ar    1  UNL1       -0.0014
     29 C         144.4374  143.1544  163.1030 C.3     1  UNL1        0.0992
     30 C         142.6742  138.5102  164.6269 C.3     1  UNL1        0.0186
     31 C         143.0531  139.9254  164.9488 C.3     1  UNL1        0.0702
     32 C         143.5558  140.8323  163.8650 C.3     1  UNL1        0.0882
     33 N         143.9347  142.2475  164.1869 N.3     1  UNL1       -0.2666
     34 C         143.8110  142.7557  165.5927 C.3     1  UNL1        0.0882
     35 C         143.3084  141.8488  166.6766 C.3     1  UNL1        0.0702
     36 C         143.1846  142.3571  168.0825 C.3     1  UNL1        0.0186
     37 N         142.9294  140.4336  166.3546 N.3     1  UNL1       -0.2974
     38 H         141.9517  140.3223  166.6230 H       1  UNL1        0.1232
@<TRIPOS>BOND
     1    31    30    1
     2    31    32    1
     3    32    33    1
     4    33    29    1
     5    29    23    1
     6    23    24   ar
     7    24    25   ar
     8    25    26   ar
     9    26     1    1
    10     1     2   ar
    11     2     3   ar
    12     3     4   ar
    13     4     5   ar
    14     5     6    1
    15     6     7    2
    16     6     8   am
    17     8     9    1
    18     9    10    1
    19    10    11    1
    20    11    14    1
    21    14    16    1
    22    16    17   ar
    23    17    18   ar
    24    18    19   ar
    25    19    20   ar
    26    20    21    1
    27    20    22   ar
    28    11    12    1
    29    12    13    1
    30    26    27   ar
    31    27    28   ar
    32    33    34    1
    33    34    35    1
    34    35    36    1
    35    35    37    1
    36    37    31    1
    37    28    23   ar
    38     5     1   ar
    39    13     8    1
    40    22    16   ar
    41    14    15    1
    42    37    38    1
@<TRIPOS>MOLECULE
*****
 38 42 0 0 0
SMALL
GASTEIGER

@<TRIPOS>ATOM
      1 N         140.5964  139.6906  167.1618 N.ar    1  UNL1       -0.2852
      2 C         139.9110  140.1059  168.4297 C.ar    1  UNL1        0.1023
      3 C         140.9509  140.2119  169.5056 C.ar    1  UNL1        0.1197
      4 N         142.2790  139.8621  168.9025 N.ar    1  UNL1       -0.2207
      5 C         142.0599  139.5399  167.4540 C.ar    1  UNL1        0.2024
      6 C         143.1186  139.1377  166.4704 C.2     1  UNL1        0.2837
      7 O         143.7390  137.7744  166.5518 O.2     1  UNL1       -0.2666
      8 N         143.5569  140.0986  165.4052 N.am    1  UNL1       -0.2735
      9 C         144.6155  139.6964  164.4217 C.3     1  UNL1        0.0955
     10 C         145.0538  140.6574  163.3566 C.3     1  UNL1        0.0410
     11 C         144.4334  142.0206  163.2751 C.3     1  UNL1        0.0724
     12 C         143.3748  142.4230  164.2587 C.3     1  UNL1        0.0410
     13 C         142.9365  141.4620  165.3238 C.3     1  UNL1        0.0955
     14 N         144.8717  142.9816  162.2100 N.pl3   1  UNL1       -0.3339
     15 H         145.6281  143.5894  162.3764 H       1  UNL1        0.1468
     16 C         144.1575  143.0166  160.8914 C.ar    1  UNL1        0.0469
     17 C         142.7399  143.5015  160.8189 C.ar    1  UNL1        0.0144
     18 C         142.0257  143.5365  159.5004 C.ar    1  UNL1        0.0036
     19 C         142.7291  143.0866  158.2542 C.ar    1  UNL1        0.0297
     20 C         144.1467  142.6017  158.3267 C.ar    1  UNL1        0.1414
     21 F         144.8501  142.1517  157.0806 F       1  UNL1       -0.2041
     22 C         144.8609  142.5667  159.6453 C.ar    1  UNL1        0.0439
     23 C         138.6108  139.0153  163.1804 C.ar    1  UNL1       -0.0060
     24 C         138.6033  140.3813  163.8001 C.ar    1  UNL1       -0.0014
     25 C         139.2652  140.6064  165.1272 C.ar    1  UNL1        0.0173
     26 C         139.9346  139.4655  165.8346 C.ar    1  UNL1        0.0655
     27 C         139.9420  138.0996  165.2149 C.ar    1  UNL1        0.0173
     28 C         139.2802  137.8745  163.8878 C.ar    1  UNL1       -0.0014
     29 C         137.9489  138.7902  161.8533 C.3     1  UNL1        0.0992
     30 C         142.1243  139.4581  158.8333 C.3     1  UNL1        0.0186
     31 C         140.6615  139.6663  159.0920 C.3     1  UNL1        0.0702
     32 C         140.0366  139.1242  160.3432 C.3     1  UNL1        0.0882
     33 N         138.5738  139.3323  160.6020 N.3     1  UNL1       -0.2666
     34 C         137.7359  140.0826  159.6095 C.3     1  UNL1        0.0882
     35 C         138.3608  140.6246  158.3583 C.3     1  UNL1        0.0702
     36 C         137.5229  141.3749  157.3657 C.3     1  UNL1        0.0186
     37 N         139.8236  140.4165  158.0995 N.3     1  UNL1       -0.2974
     38 H         140.2402  141.3425  158.0028 H       1  UNL1        0.1232
@<TRIPOS>BOND
     1    31    30    1
     2    31    32    1
     3    32    33    1
     4    33    29    1
     5    29    23    1
     6    23    24   ar
     7    24    25   ar
     8    25    26   ar
     9    26     1    1
    10     1     2   ar
    11     2     3   ar
    12     3     4   ar
    13     4     5   ar
    14     5     6    1
    15     6     7    2
    16     6     8   am
    17     8     9    1
    18     9    10    1
    19    10    11    1
    20    11    14    1
    21    14    16    1
    22    16    17   ar
    23    17    18   ar
    24    18    19   ar
    25    19    20   ar
    26    20    21    1
    27    20    22   ar
    28    11    12    1
    29    12    13    1
    30    26    27   ar
    31    27    28   ar
    32    33    34    1
    33    34    35    1
    34    35    36    1
    35    35    37    1
    36    37    31    1
    37    28    23   ar
    38     5     1   ar
    39    13     8    1
    40    22    16   ar
    41    14    15    1
    42    37    38    1
@<TRIPOS>MOLECULE
*****
 38 42 0 0 0
SMALL
GASTEIGER

@<TRIPOS>ATOM
      1 N         141.9911  138.3749  157.4495 N.ar    1  UNL1       -0.2852
      2 C         142.1009  137.0780  156.7039 C.ar    1  UNL1        0.1023
      3 C         143.4017  137.0815  155.9568 C.ar    1  UNL1        0.1197
      4 N         144.0958  138.3806  156.2408 N.ar    1  UNL1       -0.2207
      5 C         143.2240  139.1799  157.1633 C.ar    1  UNL1        0.2024
      6 C         143.5313  140.5447  157.7046 C.2     1  UNL1        0.2837
      7 O         143.4776  141.7400  156.7998 O.2     1  UNL1       -0.2666
      8 N         143.8921  140.7144  159.1507 N.am    1  UNL1       -0.2735
      9 C         144.1993  142.0791  159.6919 C.3     1  UNL1        0.0955
     10 C         144.5602  142.2487  161.1380 C.3     1  UNL1        0.0410
     11 C         144.6138  141.0535  162.0427 C.3     1  UNL1        0.0724
     12 C         144.3066  139.6887  161.5015 C.3     1  UNL1        0.0410
     13 C         143.9458  139.5191  160.0555 C.3     1  UNL1        0.0955
     14 N         144.9747  141.2231  163.4888 N.pl3   1  UNL1       -0.3339
     15 H         145.7610  141.7594  163.7403 H       1  UNL1        0.1468
     16 C         144.1374  140.5755  164.5516 C.ar    1  UNL1        0.0469
     17 C         142.9080  141.2665  165.0626 C.ar    1  UNL1        0.0144
     18 C         142.0708  140.6190  166.1254 C.ar    1  UNL1        0.0036
     19 C         142.4629  139.2804  166.6774 C.ar    1  UNL1        0.0297
     20 C         143.6923  138.5895  166.1664 C.ar    1  UNL1        0.1414
     21 F         144.0845  137.2510  166.7183 F       1  UNL1       -0.2041
     22 C         144.5296  139.2370  165.1036 C.ar    1  UNL1        0.0439
     23 C         138.5646  139.6302  160.0827 C.ar    1  UNL1       -0.0060
     24 C         138.6353  140.1112  158.6636 C.ar    1  UNL1       -0.0014
     25 C         139.7775  139.6928  157.7859 C.ar    1  UNL1        0.0173
     26 C         140.8490  138.7933  158.3272 C.ar    1  UNL1        0.0655
     27 C         140.7782  138.3123  159.7462 C.ar    1  UNL1        0.0173
     28 C         139.6361  138.7307  160.6239 C.ar    1  UNL1       -0.0014
     29 C         137.4225  140.0486  160.9604 C.3     1  UNL1        0.0992
     30 C         138.4151  139.4254  166.0226 C.3     1  UNL1        0.0186
     31 C         138.1892  140.3258  164.8444 C.3     1  UNL1        0.0702
     32 C         137.9188  139.7370  163.4916 C.3     1  UNL1        0.0882
     33 N         137.6929  140.6374  162.3133 N.3     1  UNL1       -0.2666
     34 C         137.7373  142.1265  162.4879 C.3     1  UNL1        0.0882
     35 C         138.0077  142.7153  163.8407 C.3     1  UNL1        0.0702
     36 C         138.0521  144.2045  164.0153 C.3     1  UNL1        0.0186
     37 N         138.2336  141.8149  165.0190 N.3     1  UNL1       -0.2974
     38 H         137.5227  142.0516  165.7110 H       1  UNL1        0.1232
@<TRIPOS>BOND
     1    31    30    1
     2    31    32    1
     3    32    33    1
     4    33    29    1
     5    29    23    1
     6    23    24   ar
     7    24    25   ar
     8    25    26   ar
     9    26     1    1
    10     1     2   ar
    11     2     3   ar
    12     3     4   ar
    13     4     5   ar
    14     5     6    1
    15     6     7    2
    16     6     8   am
    17     8     9    1
    18     9    10    1
    19    10    11    1
    20    11    14    1
    21    14    16    1
    22    16    17   ar
    23    17    18   ar
    24    18    19   ar
    25    19    20   ar
    26    20    21    1
    27    20    22   ar
    28    11    12    1
    29    12    13    1
    30    26    27   ar
    31    27    28   ar
    32    33    34    1
    33    34    35    1
    34    35    36    1
    35    35    37    1
    36    37    31    1
    37    28    23   ar
    38     5     1   ar
    39    13     8    1
    40    22    16   ar
    41    14    15    1
    42    37    38    1
@<TRIPOS>MOLECULE
*****
 38 42 0 0 0
SMALL
GASTEIGER

@<TRIPOS>ATOM
      1 N         142.2564  138.9227  157.2813 N.ar    1  UNL1       -0.2852
      2 C         142.4480  137.7289  156.3935 C.ar    1  UNL1        0.1023
      3 C         143.7714  137.8729  155.7023 C.ar    1  UNL1        0.1197
      4 N         144.3978  139.1557  156.1630 N.ar    1  UNL1       -0.2207
      5 C         143.4614  139.8045  157.1388 C.ar    1  UNL1        0.2024
      6 C         143.6900  141.1065  157.8477 C.2     1  UNL1        0.2837
      7 O         143.6101  142.3979  157.0887 O.2     1  UNL1       -0.2666
      8 N         143.9985  141.1173  159.3156 N.am    1  UNL1       -0.2735
      9 C         144.2271  142.4192  160.0245 C.3     1  UNL1        0.0955
     10 C         144.5355  142.4300  161.4924 C.3     1  UNL1        0.0410
     11 C         144.6154  141.1387  162.2514 C.3     1  UNL1        0.0724
     12 C         144.3868  139.8366  161.5426 C.3     1  UNL1        0.0410
     13 C         144.0784  139.8259  160.0747 C.3     1  UNL1        0.0955
     14 N         144.9239  141.1493  163.7193 N.pl3   1  UNL1       -0.3339
     15 H         145.7581  141.5590  164.0440 H       1  UNL1        0.1468
     16 C         143.9613  140.5358  164.6925 C.ar    1  UNL1        0.0469
     17 C         144.1288  139.1056  165.1125 C.ar    1  UNL1        0.0144
     18 C         143.1663  138.4920  166.0855 C.ar    1  UNL1        0.0036
     19 C         142.0362  139.3087  166.6388 C.ar    1  UNL1        0.0297
     20 C         141.8687  140.7389  166.2188 C.ar    1  UNL1        0.1414
     21 F         140.7386  141.5555  166.7719 F       1  UNL1       -0.2041
     22 C         142.8312  141.3524  165.2456 C.ar    1  UNL1        0.0439
     23 C         138.6922  139.7188  159.9106 C.ar    1  UNL1       -0.0060
     24 C         138.8850  140.5078  158.6494 C.ar    1  UNL1       -0.0014
     25 C         140.0731  140.2424  157.7730 C.ar    1  UNL1        0.0173
     26 C         141.0683  139.1881  158.1577 C.ar    1  UNL1        0.0655
     27 C         140.8755  138.3992  159.4188 C.ar    1  UNL1        0.0173
     28 C         139.6874  138.6646  160.2953 C.ar    1  UNL1       -0.0014
     29 C         137.5042  139.9842  160.7870 C.3     1  UNL1        0.0992
     30 C         137.8207  144.0763  163.9737 C.3     1  UNL1        0.0186
     31 C         137.8569  142.5924  163.7574 C.3     1  UNL1        0.0702
     32 C         137.6625  142.0302  162.3804 C.3     1  UNL1        0.0882
     33 N         137.6987  140.5464  162.1641 N.3     1  UNL1       -0.2666
     34 C         137.9293  139.6246  163.3247 C.3     1  UNL1        0.0882
     35 C         138.1238  140.1868  164.7017 C.3     1  UNL1        0.0702
     36 C         138.3545  139.2651  165.8624 C.3     1  UNL1        0.0186
     37 N         138.0876  141.6707  164.9180 N.3     1  UNL1       -0.2974
     38 H         138.9853  141.9307  165.3266 H       1  UNL1        0.1232
@<TRIPOS>BOND
     1    31    30    1
     2    31    32    1
     3    32    33    1
     4    33    29    1
     5    29    23    1
     6    23    24   ar
     7    24    25   ar
     8    25    26   ar
     9    26     1    1
    10     1     2   ar
    11     2     3   ar
    12     3     4   ar
    13     4     5   ar
    14     5     6    1
    15     6     7    2
    16     6     8   am
    17     8     9    1
    18     9    10    1
    19    10    11    1
    20    11    14    1
    21    14    16    1
    22    16    17   ar
    23    17    18   ar
    24    18    19   ar
    25    19    20   ar
    26    20    21    1
    27    20    22   ar
    28    11    12    1
    29    12    13    1
    30    26    27   ar
    31    27    28   ar
    32    33    34    1
    33    34    35    1
    34    35    36    1
    35    35    37    1
    36    37    31    1
    37    28    23   ar
    38     5     1   ar
    39    13     8    1
    40    22    16   ar
    41    14    15    1
    42    37    38    1
