@<TRIPOS>MOLECULE
*****
 43 47 0 0 0
SMALL
GASTEIGER

@<TRIPOS>ATOM
      1 C         141.2346  140.9533  162.6988 C.3     1  UNL1        0.0807
      2 C         141.3074  140.6894  164.1737 C.ar    1  UNL1        0.0375
      3 C         140.9392  141.7690  165.1478 C.ar    1  UNL1        0.0023
      4 C         141.0119  141.5052  166.6227 C.ar    1  UNL1        0.0181
      5 C         140.6438  142.5848  167.5967 C.ar    1  UNL1        0.0082
      6 C         140.7165  142.3209  169.0715 C.ar    1  UNL1        0.0347
      7 BR        140.3483  143.4005  170.0457 Br      1  UNL1       -0.0490
      8 C         141.1574  140.9775  169.5722 C.ar    1  UNL1        0.0082
      9 C         141.5256  139.8979  168.5981 C.ar    1  UNL1        0.0197
     10 C         141.4528  140.1617  167.1234 C.ar    1  UNL1        0.0844
     11 N         141.8210  139.0821  166.1492 N.ar    1  UNL1       -0.2119
     12 C         141.7483  139.3460  164.6744 C.ar    1  UNL1        0.2211
     13 O         142.1165  138.2664  163.7002 O.3     1  UNL1       -0.4563
     14 C         141.1208  137.2004  163.3505 C.3     1  UNL1        0.2542
     15 C         140.0568  140.4675  161.9072 C.ar    1  UNL1        0.0215
     16 C         138.6636  140.7727  162.3718 C.ar    1  UNL1       -0.0007
     17 C         137.4857  140.2869  161.5802 C.ar    1  UNL1        0.0030
     18 C         137.7011  139.4959  160.3240 C.ar    1  UNL1        0.0402
     19 C         139.0943  139.1908  159.8594 C.ar    1  UNL1        0.1761
     20 C         140.2722  139.6765  160.6510 C.ar    1  UNL1        0.1728
     21 O         141.5194  139.2248  159.9508 O.3     1  UNL1       -0.4349
     22 C         141.1124  138.4598  158.7264 C.3     1  UNL1        0.4294
     23 O         139.6136  138.4388  158.6699 O.3     1  UNL1       -0.4346
     24 C         142.3398  141.7029  162.0156 C.3     1  UNL1        0.1162
     25 O         143.2574  140.5336  162.2170 O.3     1  UNL1       -0.3820
     26 H         144.1290  140.7385  161.8438 H       1  UNL1        0.2107
     27 C         140.1362  144.4758  160.2253 C.ar    1  UNL1        0.2272
     28 C         141.0538  143.3064  160.4266 C.ar    1  UNL1        0.0559
     29 C         141.4221  142.8723  161.8143 C.ar    1  UNL1        0.0117
     30 C         140.8728  143.6075  163.0007 C.ar    1  UNL1        0.0560
     31 C         139.9551  144.7768  162.7994 C.ar    1  UNL1        0.2319
     32 N         139.5868  145.2110  161.4117 N.ar    1  UNL1       -0.1766
     33 C         140.7957  145.5554  157.9560 C.3     1  UNL1        0.2542
     34 O         139.7679  144.9099  158.8375 O.3     1  UNL1       -0.4561
     35 O         139.4058  145.5121  163.9859 O.3     1  UNL1       -0.4067
     36 C         138.6123  144.7748  165.0236 C.3     1  UNL1        0.5097
     37 F         138.3610  145.4032  166.3622 F       1  UNL1       -0.1549
     38 F         138.0700  143.4090  164.7226 F       1  UNL1       -0.1549
     39 C         143.4449  142.4525  161.3325 C.3     1  UNL1        0.0491
     40 C         144.4366  143.2315  162.1447 C.3     1  UNL1        0.0750
     41 N         144.8289  142.7519  163.5107 N.3     1  UNL1       -0.2702
     42 C         144.2075  143.3679  164.7290 C.3     1  UNL1        0.0897
     43 C         145.8427  141.6563  163.6585 C.3     1  UNL1        0.0897
@<TRIPOS>BOND
     1    33    34    1
     2    34    27    1
     3    27    28   ar
     4    28    29   ar
     5    29    24    1
     6    24    25    1
     7    24    39    1
     8    39    40    1
     9    40    41    1
    10    41    42    1
    11    41    43    1
    12    24     1    1
    13     1     2    1
    14     2     3   ar
    15     3     4   ar
    16     4     5   ar
    17     5     6   ar
    18     6     7    1
    19     6     8   ar
    20     8     9   ar
    21     9    10   ar
    22    10    11   ar
    23    11    12   ar
    24    12    13    1
    25    13    14    1
    26     1    15    1
    27    15    16   ar
    28    16    17   ar
    29    17    18   ar
    30    18    19   ar
    31    19    20   ar
    32    20    21    1
    33    21    22    1
    34    22    23    1
    35    29    30   ar
    36    30    31   ar
    37    31    35    1
    38    35    36    1
    39    36    37    1
    40    36    38    1
    41    31    32   ar
    42    32    27   ar
    43    12     2   ar
    44    20    15   ar
    45    10     4   ar
    46    23    19    1
    47    25    26    1
@<TRIPOS>MOLECULE
*****
 43 47 0 0 0
SMALL
GASTEIGER

@<TRIPOS>ATOM
      1 C         141.4843  140.7029  163.4075 C.3     1  UNL1        0.0807
      2 C         141.7158  140.5715  164.8837 C.ar    1  UNL1        0.0375
      3 C         140.9023  141.3855  165.8458 C.ar    1  UNL1        0.0023
      4 C         141.1339  141.2542  167.3221 C.ar    1  UNL1        0.0181
      5 C         140.3204  142.0681  168.2842 C.ar    1  UNL1        0.0082
      6 C         140.5519  141.9367  169.7603 C.ar    1  UNL1        0.0347
      7 BR        139.7384  142.7507  170.7225 Br      1  UNL1       -0.0490
      8 C         141.5970  140.9914  170.2744 C.ar    1  UNL1        0.0082
      9 C         142.4105  140.1775  169.3123 C.ar    1  UNL1        0.0197
     10 C         142.1789  140.3088  167.8361 C.ar    1  UNL1        0.0844
     11 N         142.9924  139.4949  166.8739 N.ar    1  UNL1       -0.2119
     12 C         142.7609  139.6262  165.3978 C.ar    1  UNL1        0.2211
     13 O         143.5744  138.8123  164.4356 O.3     1  UNL1       -0.4563
     14 C         144.9580  139.2549  164.0617 C.3     1  UNL1        0.2542
     15 C         142.4642  141.4574  162.5588 C.ar    1  UNL1        0.0215
     16 C         143.0938  140.7937  161.3701 C.ar    1  UNL1       -0.0007
     17 C         144.0738  141.5483  160.5214 C.ar    1  UNL1        0.0030
     18 C         144.4242  142.9665  160.8614 C.ar    1  UNL1        0.0402
     19 C         143.7947  143.6303  162.0502 C.ar    1  UNL1        0.1761
     20 C         142.8147  142.8757  162.8989 C.ar    1  UNL1        0.1728
     21 O         142.3586  143.7858  164.0006 O.3     1  UNL1       -0.4349
     22 C         143.0567  145.1028  163.8328 C.3     1  UNL1        0.4294
     23 O         143.9443  145.0066  162.6274 O.3     1  UNL1       -0.4346
     24 C         140.2728  140.0796  162.7800 C.3     1  UNL1        0.1162
     25 O         140.8330  138.7153  163.0534 O.3     1  UNL1       -0.3820
     26 H         140.2151  138.0412  162.7298 H       1  UNL1        0.2107
     27 C         139.3060  143.4235  160.8738 C.ar    1  UNL1        0.2272
     28 C         139.8662  142.0592  161.1472 C.ar    1  UNL1        0.0559
     29 C         139.7125  141.4440  162.5065 C.ar    1  UNL1        0.0117
     30 C         138.9986  142.1930  163.5924 C.ar    1  UNL1        0.0560
     31 C         138.4384  143.5574  163.3190 C.ar    1  UNL1        0.2319
     32 N         138.5921  144.1726  161.9597 N.ar    1  UNL1       -0.1766
     33 C         140.4499  145.1447  159.2993 C.3     1  UNL1        0.2542
     34 O         139.4597  144.0388  159.5144 O.3     1  UNL1       -0.4561
     35 O         137.7245  144.3064  164.4050 O.3     1  UNL1       -0.4067
     36 C         138.4948  144.8531  165.5702 C.3     1  UNL1        0.5097
     37 F         137.8398  145.8137  166.5180 F       1  UNL1       -0.1549
     38 F         139.9201  144.4391  165.7877 F       1  UNL1       -0.1549
     39 C         139.0612  139.4564  162.1525 C.3     1  UNL1        0.0491
     40 C         139.2210  138.3788  161.1213 C.3     1  UNL1        0.0750
     41 N         139.8985  138.6825  159.8180 N.3     1  UNL1       -0.2702
     42 C         139.1430  139.3769  158.7239 C.3     1  UNL1        0.0897
     43 C         141.3315  138.2919  159.6087 C.3     1  UNL1        0.0897
@<TRIPOS>BOND
     1    33    34    1
     2    34    27    1
     3    27    28   ar
     4    28    29   ar
     5    29    24    1
     6    24    25    1
     7    24    39    1
     8    39    40    1
     9    40    41    1
    10    41    42    1
    11    41    43    1
    12    24     1    1
    13     1     2    1
    14     2     3   ar
    15     3     4   ar
    16     4     5   ar
    17     5     6   ar
    18     6     7    1
    19     6     8   ar
    20     8     9   ar
    21     9    10   ar
    22    10    11   ar
    23    11    12   ar
    24    12    13    1
    25    13    14    1
    26     1    15    1
    27    15    16   ar
    28    16    17   ar
    29    17    18   ar
    30    18    19   ar
    31    19    20   ar
    32    20    21    1
    33    21    22    1
    34    22    23    1
    35    29    30   ar
    36    30    31   ar
    37    31    35    1
    38    35    36    1
    39    36    37    1
    40    36    38    1
    41    31    32   ar
    42    32    27   ar
    43    12     2   ar
    44    20    15   ar
    45    10     4   ar
    46    23    19    1
    47    25    26    1
@<TRIPOS>MOLECULE
*****
 43 47 0 0 0
SMALL
GASTEIGER

@<TRIPOS>ATOM
      1 C         142.1645  141.0398  163.2092 C.3     1  UNL1        0.0807
      2 C         142.3793  141.3910  164.6516 C.ar    1  UNL1        0.0375
      3 C         141.5347  140.7510  165.7132 C.ar    1  UNL1        0.0023
      4 C         141.7494  141.1023  167.1556 C.ar    1  UNL1        0.0181
      5 C         140.9048  140.4623  168.2172 C.ar    1  UNL1        0.0082
      6 C         141.1196  140.8136  169.6596 C.ar    1  UNL1        0.0347
      7 BR        140.2749  140.1736  170.7212 Br      1  UNL1       -0.0490
      8 C         142.1790  141.8048  170.0404 C.ar    1  UNL1        0.0082
      9 C         143.0237  142.4448  168.9788 C.ar    1  UNL1        0.0197
     10 C         142.8089  142.0935  167.5364 C.ar    1  UNL1        0.0844
     11 N         143.6535  142.7335  166.4748 N.ar    1  UNL1       -0.2119
     12 C         143.4387  142.3823  165.0324 C.ar    1  UNL1        0.2211
     13 O         144.2834  143.0223  163.9708 O.3     1  UNL1       -0.4563
     14 C         144.0118  144.4353  163.5468 C.3     1  UNL1        0.2542
     15 C         141.4491  141.9970  162.3027 C.ar    1  UNL1        0.0215
     16 C         142.1764  142.6250  161.1509 C.ar    1  UNL1       -0.0007
     17 C         141.4610  143.5823  160.2443 C.ar    1  UNL1        0.0030
     18 C         140.0183  143.9116  160.4896 C.ar    1  UNL1        0.0402
     19 C         139.2910  143.2835  161.6414 C.ar    1  UNL1        0.1761
     20 C         140.0064  142.3263  162.5480 C.ar    1  UNL1        0.1728
     21 O         139.0359  141.8665  163.5952 O.3     1  UNL1       -0.4349
     22 C         137.7208  142.5396  163.3359 C.3     1  UNL1        0.4294
     23 O         137.8784  143.4154  162.1284 O.3     1  UNL1       -0.4346
     24 C         142.6652  139.7313  162.6734 C.3     1  UNL1        0.1162
     25 O         144.0612  140.2790  162.6403 O.3     1  UNL1       -0.3820
     26 H         144.6674  139.5993  162.3065 H       1  UNL1        0.2107
     27 C         139.0072  138.7152  161.5173 C.ar    1  UNL1        0.2272
     28 C         140.4032  139.2629  161.4842 C.ar    1  UNL1        0.0559
     29 C         141.2692  139.1836  162.7064 C.ar    1  UNL1        0.0117
     30 C         140.7391  138.5565  163.9617 C.ar    1  UNL1        0.0560
     31 C         139.3430  138.0088  163.9948 C.ar    1  UNL1        0.2319
     32 N         138.4771  138.0881  162.7726 N.ar    1  UNL1       -0.1766
     33 C         137.4119  140.0654  159.9738 C.3     1  UNL1        0.2542
     34 O         138.1412  138.7945  160.2950 O.3     1  UNL1       -0.4561
     35 O         138.8130  137.3817  165.2502 O.3     1  UNL1       -0.4067
     36 C         138.0233  138.2050  166.2241 C.3     1  UNL1        0.5097
     37 F         137.2112  137.5313  167.2902 F       1  UNL1       -0.1549
     38 F         138.0457  139.7020  166.1319 F       1  UNL1       -0.1549
     39 C         143.1659  138.4228  162.1375 C.3     1  UNL1        0.0491
     40 C         144.0754  138.3994  160.9450 C.3     1  UNL1        0.0750
     41 N         143.5604  138.8206  159.6006 N.3     1  UNL1       -0.2702
     42 C         142.6966  137.8893  158.8028 C.3     1  UNL1        0.0897
     43 C         143.9092  140.1732  159.0540 C.3     1  UNL1        0.0897
@<TRIPOS>BOND
     1    33    34    1
     2    34    27    1
     3    27    28   ar
     4    28    29   ar
     5    29    24    1
     6    24    25    1
     7    24    39    1
     8    39    40    1
     9    40    41    1
    10    41    42    1
    11    41    43    1
    12    24     1    1
    13     1     2    1
    14     2     3   ar
    15     3     4   ar
    16     4     5   ar
    17     5     6   ar
    18     6     7    1
    19     6     8   ar
    20     8     9   ar
    21     9    10   ar
    22    10    11   ar
    23    11    12   ar
    24    12    13    1
    25    13    14    1
    26     1    15    1
    27    15    16   ar
    28    16    17   ar
    29    17    18   ar
    30    18    19   ar
    31    19    20   ar
    32    20    21    1
    33    21    22    1
    34    22    23    1
    35    29    30   ar
    36    30    31   ar
    37    31    35    1
    38    35    36    1
    39    36    37    1
    40    36    38    1
    41    31    32   ar
    42    32    27   ar
    43    12     2   ar
    44    20    15   ar
    45    10     4   ar
    46    23    19    1
    47    25    26    1
@<TRIPOS>MOLECULE
*****
 43 47 0 0 0
SMALL
GASTEIGER

@<TRIPOS>ATOM
      1 C         141.6011  141.4860  163.7460 C.3     1  UNL1        0.0807
      2 C         142.0547  141.7300  165.1549 C.ar    1  UNL1        0.0375
      3 C         141.3210  141.0962  166.2994 C.ar    1  UNL1        0.0023
      4 C         141.7746  141.3402  167.7082 C.ar    1  UNL1        0.0181
      5 C         141.0409  140.7065  168.8528 C.ar    1  UNL1        0.0082
      6 C         141.4946  140.9505  170.2615 C.ar    1  UNL1        0.0347
      7 BR        140.7609  140.3167  171.4062 Br      1  UNL1       -0.0490
      8 C         142.6819  141.8283  170.5257 C.ar    1  UNL1        0.0082
      9 C         143.4156  142.4620  169.3812 C.ar    1  UNL1        0.0197
     10 C         142.9619  142.2180  167.9725 C.ar    1  UNL1        0.0844
     11 N         143.6956  142.8518  166.8278 N.ar    1  UNL1       -0.2119
     12 C         143.2420  142.6078  165.4191 C.ar    1  UNL1        0.2211
     13 O         143.9757  143.2415  164.2744 O.3     1  UNL1       -0.4563
     14 C         143.8396  144.7134  164.0193 C.3     1  UNL1        0.2542
     15 C         142.4787  140.7255  162.7966 C.ar    1  UNL1        0.0215
     16 C         142.9013  139.3242  163.1247 C.ar    1  UNL1       -0.0007
     17 C         143.7790  138.5637  162.1753 C.ar    1  UNL1        0.0030
     18 C         144.2341  139.2046  160.8977 C.ar    1  UNL1        0.0402
     19 C         143.8114  140.6060  160.5696 C.ar    1  UNL1        0.1761
     20 C         142.9338  141.3664  161.5190 C.ar    1  UNL1        0.1728
     21 O         142.6805  142.7228  160.9307 O.3     1  UNL1       -0.4349
     22 C         143.4015  142.8006  159.6177 C.3     1  UNL1        0.4294
     23 O         144.1005  141.4923  159.3945 O.3     1  UNL1       -0.4346
     24 C         140.2698  142.0025  163.2867 C.3     1  UNL1        0.1162
     25 O         140.7663  143.4105  163.4309 O.3     1  UNL1       -0.3820
     26 H         140.0617  144.0289  163.1819 H       1  UNL1        0.2107
     27 C         139.1697  138.5645  161.6374 C.ar    1  UNL1        0.2272
     28 C         139.6663  139.9725  161.7816 C.ar    1  UNL1        0.0559
     29 C         139.7733  140.5944  163.1424 C.ar    1  UNL1        0.0117
     30 C         139.3839  139.8081  164.3590 C.ar    1  UNL1        0.0560
     31 C         138.8874  138.4001  164.2148 C.ar    1  UNL1        0.2319
     32 N         138.7803  137.7782  162.8540 N.ar    1  UNL1       -0.1766
     33 C         139.6180  138.6567  159.0799 C.3     1  UNL1        0.2542
     34 O         139.0627  137.9426  160.2765 O.3     1  UNL1       -0.4561
     35 O         138.4979  137.6138  165.4315 O.3     1  UNL1       -0.4067
     36 C         137.9048  138.3134  166.6184 C.3     1  UNL1        0.5097
     37 F         136.7466  137.7008  167.3486 F       1  UNL1       -0.1549
     38 F         138.4701  139.6257  167.0751 F       1  UNL1       -0.1549
     39 C         138.9386  142.5189  162.8273 C.3     1  UNL1        0.0491
     40 C         138.8405  143.8681  162.1793 C.3     1  UNL1        0.0750
     41 N         139.4628  144.1012  160.8345 N.3     1  UNL1       -0.2702
     42 C         140.2214  145.3676  160.5685 C.3     1  UNL1        0.0897
     43 C         139.3264  143.0680  159.7557 C.3     1  UNL1        0.0897
@<TRIPOS>BOND
     1    33    34    1
     2    34    27    1
     3    27    28   ar
     4    28    29   ar
     5    29    24    1
     6    24    25    1
     7    24    39    1
     8    39    40    1
     9    40    41    1
    10    41    42    1
    11    41    43    1
    12    24     1    1
    13     1     2    1
    14     2     3   ar
    15     3     4   ar
    16     4     5   ar
    17     5     6   ar
    18     6     7    1
    19     6     8   ar
    20     8     9   ar
    21     9    10   ar
    22    10    11   ar
    23    11    12   ar
    24    12    13    1
    25    13    14    1
    26     1    15    1
    27    15    16   ar
    28    16    17   ar
    29    17    18   ar
    30    18    19   ar
    31    19    20   ar
    32    20    21    1
    33    21    22    1
    34    22    23    1
    35    29    30   ar
    36    30    31   ar
    37    31    35    1
    38    35    36    1
    39    36    37    1
    40    36    38    1
    41    31    32   ar
    42    32    27   ar
    43    12     2   ar
    44    20    15   ar
    45    10     4   ar
    46    23    19    1
    47    25    26    1
@<TRIPOS>MOLECULE
*****
 43 47 0 0 0
SMALL
GASTEIGER

@<TRIPOS>ATOM
      1 C         140.5014  140.7244  162.9677 C.3     1  UNL1        0.0807
      2 C         140.2425  140.5959  164.4396 C.ar    1  UNL1        0.0375
      3 C         140.9923  141.4584  165.4111 C.ar    1  UNL1        0.0023
      4 C         140.7334  141.3298  166.8831 C.ar    1  UNL1        0.0181
      5 C         141.4831  142.1924  167.8546 C.ar    1  UNL1        0.0082
      6 C         141.2242  142.0638  169.3264 C.ar    1  UNL1        0.0347
      7 BR        141.9739  142.9263  170.2980 Br      1  UNL1       -0.0490
      8 C         140.2156  141.0726  169.8268 C.ar    1  UNL1        0.0082
      9 C         139.4658  140.2101  168.8552 C.ar    1  UNL1        0.0197
     10 C         139.7248  140.3387  167.3834 C.ar    1  UNL1        0.0844
     11 N         138.9750  139.4761  166.4118 N.ar    1  UNL1       -0.2119
     12 C         139.2339  139.6047  164.9399 C.ar    1  UNL1        0.2211
     13 O         138.4842  138.7422  163.9683 O.3     1  UNL1       -0.4563
     14 C         139.0541  137.4214  163.5432 C.3     1  UNL1        0.2542
     15 C         141.4808  139.8084  162.2956 C.ar    1  UNL1        0.0215
     16 C         142.7749  139.4672  162.9728 C.ar    1  UNL1       -0.0007
     17 C         143.7544  138.5511  162.3007 C.ar    1  UNL1        0.0030
     18 C         143.4396  137.9764  160.9514 C.ar    1  UNL1        0.0402
     19 C         142.1454  138.3177  160.2742 C.ar    1  UNL1        0.1761
     20 C         141.1660  139.2337  160.9463 C.ar    1  UNL1        0.1728
     21 O         139.9799  139.3886  160.0412 O.3     1  UNL1       -0.4349
     22 C         140.2262  138.5683  158.8098 C.3     1  UNL1        0.4294
     23 O         141.5646  137.9064  158.9538 O.3     1  UNL1       -0.4346
     24 C         139.7809  141.7690  162.1679 C.3     1  UNL1        0.1162
     25 O         138.4850  141.0483  162.3940 O.3     1  UNL1       -0.3820
     26 H         137.7663  141.5298  161.9551 H       1  UNL1        0.2107
     27 C         142.8770  143.4268  160.3196 C.ar    1  UNL1        0.2272
     28 C         141.5811  142.7061  160.5457 C.ar    1  UNL1        0.0559
     29 C         141.0768  142.4898  161.9418 C.ar    1  UNL1        0.0117
     30 C         141.8685  142.9943  163.1117 C.ar    1  UNL1        0.0560
     31 C         143.1644  143.7150  162.8855 C.ar    1  UNL1        0.2319
     32 N         143.6686  143.9313  161.4895 N.ar    1  UNL1       -0.1766
     33 C         142.4642  144.1936  157.8718 C.3     1  UNL1        0.2542
     34 O         143.3812  143.6431  158.9235 O.3     1  UNL1       -0.4561
     35 O         143.9561  144.2195  164.0555 O.3     1  UNL1       -0.4067
     36 C         144.6043  143.2483  164.9972 C.3     1  UNL1        0.5097
     37 F         144.2237  143.2428  166.4481 F       1  UNL1       -0.1549
     38 F         145.6331  142.2827  164.4879 F       1  UNL1       -0.1549
     39 C         139.0604  142.8136  161.3681 C.3     1  UNL1        0.0491
     40 C         138.2641  143.8759  162.0663 C.3     1  UNL1        0.0750
     41 N         138.9645  144.9369  162.8623 N.3     1  UNL1       -0.2702
     42 C         139.7037  146.0367  162.1593 C.3     1  UNL1        0.0897
     43 C         138.9259  144.8982  164.3612 C.3     1  UNL1        0.0897
@<TRIPOS>BOND
     1    33    34    1
     2    34    27    1
     3    27    28   ar
     4    28    29   ar
     5    29    24    1
     6    24    25    1
     7    24    39    1
     8    39    40    1
     9    40    41    1
    10    41    42    1
    11    41    43    1
    12    24     1    1
    13     1     2    1
    14     2     3   ar
    15     3     4   ar
    16     4     5   ar
    17     5     6   ar
    18     6     7    1
    19     6     8   ar
    20     8     9   ar
    21     9    10   ar
    22    10    11   ar
    23    11    12   ar
    24    12    13    1
    25    13    14    1
    26     1    15    1
    27    15    16   ar
    28    16    17   ar
    29    17    18   ar
    30    18    19   ar
    31    19    20   ar
    32    20    21    1
    33    21    22    1
    34    22    23    1
    35    29    30   ar
    36    30    31   ar
    37    31    35    1
    38    35    36    1
    39    36    37    1
    40    36    38    1
    41    31    32   ar
    42    32    27   ar
    43    12     2   ar
    44    20    15   ar
    45    10     4   ar
    46    23    19    1
    47    25    26    1
@<TRIPOS>MOLECULE
*****
 43 47 0 0 0
SMALL
GASTEIGER

@<TRIPOS>ATOM
      1 C         141.4067  142.3307  162.4929 C.3     1  UNL1        0.0807
      2 C         141.8487  142.2620  163.9248 C.ar    1  UNL1        0.0375
      3 C         140.9482  141.6547  164.9593 C.ar    1  UNL1        0.0023
      4 C         141.3902  141.5860  166.3911 C.ar    1  UNL1        0.0181
      5 C         140.4897  140.9787  167.4257 C.ar    1  UNL1        0.0082
      6 C         140.9317  140.9100  168.8574 C.ar    1  UNL1        0.0347
      7 BR        140.0312  140.3027  169.8920 Br      1  UNL1       -0.0490
      8 C         142.2741  141.4486  169.2546 C.ar    1  UNL1        0.0082
      9 C         143.1746  142.0559  168.2200 C.ar    1  UNL1        0.0197
     10 C         142.7326  142.1246  166.7883 C.ar    1  UNL1        0.0844
     11 N         143.6331  142.7319  165.7537 N.ar    1  UNL1       -0.2119
     12 C         143.1911  142.8006  164.3220 C.ar    1  UNL1        0.2211
     13 O         144.0916  143.4079  163.2873 O.3     1  UNL1       -0.4563
     14 C         144.0269  144.8802  163.0079 C.3     1  UNL1        0.2542
     15 C         142.2681  141.7457  161.4133 C.ar    1  UNL1        0.0215
     16 C         142.6415  142.5746  160.2202 C.ar    1  UNL1       -0.0007
     17 C         143.5030  141.9896  159.1404 C.ar    1  UNL1        0.0030
     18 C         143.9909  140.5757  159.2538 C.ar    1  UNL1        0.0402
     19 C         143.6174  139.7468  160.4470 C.ar    1  UNL1        0.1761
     20 C         142.7561  140.3318  161.5267 C.ar    1  UNL1        0.1728
     21 O         142.5528  139.2811  162.5777 O.3     1  UNL1       -0.4349
     22 C         143.2885  138.0468  162.1476 C.3     1  UNL1        0.4294
     23 O         143.9465  138.3346  160.8307 O.3     1  UNL1       -0.4346
     24 C         140.1034  142.9844  162.1409 C.3     1  UNL1        0.1162
     25 O         140.6491  144.3101  162.5824 O.3     1  UNL1       -0.3820
     26 H         139.9721  144.9944  162.4630 H       1  UNL1        0.2107
     27 C         138.7159  140.0894  159.8077 C.ar    1  UNL1        0.2272
     28 C         139.2615  141.4151  160.2493 C.ar    1  UNL1        0.0559
     29 C         139.5577  141.6588  161.6993 C.ar    1  UNL1        0.0117
     30 C         139.3083  140.5769  162.7079 C.ar    1  UNL1        0.0560
     31 C         138.7627  139.2513  162.2664 C.ar    1  UNL1        0.2319
     32 N         138.4664  139.0075  160.8163 N.ar    1  UNL1       -0.1766
     33 C         137.6158  140.8440  157.5782 C.3     1  UNL1        0.2542
     34 O         138.4196  139.8457  158.3575 O.3     1  UNL1       -0.4561
     35 O         138.5132  138.1693  163.2750 O.3     1  UNL1       -0.4067
     36 C         138.8544  138.3961  164.7180 C.3     1  UNL1        0.5097
     37 F         140.1038  137.8002  165.2958 F       1  UNL1       -0.1549
     38 F         137.9462  139.2187  165.5831 F       1  UNL1       -0.1549
     39 C         138.8001  143.6382  161.7888 C.3     1  UNL1        0.0491
     40 C         138.0608  144.4398  162.8188 C.3     1  UNL1        0.0750
     41 N         138.0704  144.0069  164.2549 N.3     1  UNL1       -0.2702
     42 C         137.4910  142.6785  164.6418 C.3     1  UNL1        0.0897
     43 C         138.6596  144.9023  165.3042 C.3     1  UNL1        0.0897
@<TRIPOS>BOND
     1    33    34    1
     2    34    27    1
     3    27    28   ar
     4    28    29   ar
     5    29    24    1
     6    24    25    1
     7    24    39    1
     8    39    40    1
     9    40    41    1
    10    41    42    1
    11    41    43    1
    12    24     1    1
    13     1     2    1
    14     2     3   ar
    15     3     4   ar
    16     4     5   ar
    17     5     6   ar
    18     6     7    1
    19     6     8   ar
    20     8     9   ar
    21     9    10   ar
    22    10    11   ar
    23    11    12   ar
    24    12    13    1
    25    13    14    1
    26     1    15    1
    27    15    16   ar
    28    16    17   ar
    29    17    18   ar
    30    18    19   ar
    31    19    20   ar
    32    20    21    1
    33    21    22    1
    34    22    23    1
    35    29    30   ar
    36    30    31   ar
    37    31    35    1
    38    35    36    1
    39    36    37    1
    40    36    38    1
    41    31    32   ar
    42    32    27   ar
    43    12     2   ar
    44    20    15   ar
    45    10     4   ar
    46    23    19    1
    47    25    26    1
@<TRIPOS>MOLECULE
*****
 43 47 0 0 0
SMALL
GASTEIGER

@<TRIPOS>ATOM
      1 C         140.5128  141.4220  161.6165 C.3     1  UNL1        0.0807
      2 C         140.2215  141.0206  163.0322 C.ar    1  UNL1        0.0375
      3 C         141.2342  141.2780  164.1082 C.ar    1  UNL1        0.0023
      4 C         140.9430  140.8765  165.5239 C.ar    1  UNL1        0.0181
      5 C         141.9557  141.1339  166.6000 C.ar    1  UNL1        0.0082
      6 C         141.6644  140.7324  168.0156 C.ar    1  UNL1        0.0347
      7 BR        142.6772  140.9898  169.0917 Br      1  UNL1       -0.0490
      8 C         140.3603  140.0735  168.3551 C.ar    1  UNL1        0.0082
      9 C         139.3476  139.8161  167.2790 C.ar    1  UNL1        0.0197
     10 C         139.6389  140.2176  165.8634 C.ar    1  UNL1        0.0844
     11 N         138.6261  139.9602  164.7872 N.ar    1  UNL1       -0.2119
     12 C         138.9174  140.3617  163.3717 C.ar    1  UNL1        0.2211
     13 O         137.9046  140.1042  162.2955 O.3     1  UNL1       -0.4563
     14 C         137.7050  138.7133  161.7707 C.3     1  UNL1        0.2542
     15 C         140.7631  140.3716  160.5754 C.ar    1  UNL1        0.0215
     16 C         139.9291  140.3371  159.3291 C.ar    1  UNL1       -0.0007
     17 C         140.1795  139.2867  158.2880 C.ar    1  UNL1        0.0030
     18 C         141.2639  138.2708  158.4932 C.ar    1  UNL1        0.0402
     19 C         142.0979  138.3053  159.7395 C.ar    1  UNL1        0.1761
     20 C         141.8475  139.3557  160.7806 C.ar    1  UNL1        0.1728
     21 O         142.8235  139.1415  161.8993 O.3     1  UNL1       -0.4349
     22 C         143.6770  137.9586  161.5496 C.3     1  UNL1        0.4294
     23 O         143.2286  137.4418  160.2147 O.3     1  UNL1       -0.4346
     24 C         140.5536  142.8740  161.2420 C.3     1  UNL1        0.1162
     25 O         139.0884  142.9923  161.5407 O.3     1  UNL1       -0.3820
     26 H         138.7975  143.9030  161.3767 H       1  UNL1        0.2107
     27 C         143.9680  142.7028  159.2264 C.ar    1  UNL1        0.2272
     28 C         142.5028  142.8211  159.5251 C.ar    1  UNL1        0.0559
     29 C         142.0188  142.7557  160.9433 C.ar    1  UNL1        0.0117
     30 C         143.0000  142.5720  162.0628 C.ar    1  UNL1        0.0560
     31 C         144.4652  142.4537  161.7641 C.ar    1  UNL1        0.2319
     32 N         144.9492  142.5191  160.3459 N.ar    1  UNL1       -0.1766
     33 C         145.1366  141.5833  157.1938 C.3     1  UNL1        0.2542
     34 O         144.4520  142.7682  157.8080 O.3     1  UNL1       -0.4561
     35 O         145.4465  142.2699  162.8838 O.3     1  UNL1       -0.4067
     36 C         144.9561  141.9673  164.2687 C.3     1  UNL1        0.5097
     37 F         144.6749  140.5501  164.6717 F       1  UNL1       -0.1549
     38 F         144.7469  143.0819  165.2505 F       1  UNL1       -0.1549
     39 C         140.5945  144.3259  160.8675 C.3     1  UNL1        0.0491
     40 C         140.2483  145.3728  161.8844 C.3     1  UNL1        0.0750
     41 N         140.6119  145.1681  163.3252 N.3     1  UNL1       -0.2702
     42 C         139.5635  144.7432  164.3102 C.3     1  UNL1        0.0897
     43 C         142.0238  145.3882  163.7810 C.3     1  UNL1        0.0897
@<TRIPOS>BOND
     1    33    34    1
     2    34    27    1
     3    27    28   ar
     4    28    29   ar
     5    29    24    1
     6    24    25    1
     7    24    39    1
     8    39    40    1
     9    40    41    1
    10    41    42    1
    11    41    43    1
    12    24     1    1
    13     1     2    1
    14     2     3   ar
    15     3     4   ar
    16     4     5   ar
    17     5     6   ar
    18     6     7    1
    19     6     8   ar
    20     8     9   ar
    21     9    10   ar
    22    10    11   ar
    23    11    12   ar
    24    12    13    1
    25    13    14    1
    26     1    15    1
    27    15    16   ar
    28    16    17   ar
    29    17    18   ar
    30    18    19   ar
    31    19    20   ar
    32    20    21    1
    33    21    22    1
    34    22    23    1
    35    29    30   ar
    36    30    31   ar
    37    31    35    1
    38    35    36    1
    39    36    37    1
    40    36    38    1
    41    31    32   ar
    42    32    27   ar
    43    12     2   ar
    44    20    15   ar
    45    10     4   ar
    46    23    19    1
    47    25    26    1
@<TRIPOS>MOLECULE
*****
 43 47 0 0 0
SMALL
GASTEIGER

@<TRIPOS>ATOM
      1 C         140.9916  142.1090  161.4338 C.3     1  UNL1        0.0807
      2 C         140.9064  143.1310  160.3391 C.ar    1  UNL1        0.0375
      3 C         140.0981  142.8459  159.1081 C.ar    1  UNL1        0.0023
      4 C         140.0128  143.8679  158.0134 C.ar    1  UNL1        0.0181
      5 C         139.2045  143.5828  156.7825 C.ar    1  UNL1        0.0082
      6 C         139.1193  144.6048  155.6878 C.ar    1  UNL1        0.0347
      7 BR        138.3109  144.3197  154.4568 Br      1  UNL1       -0.0490
      8 C         139.8424  145.9119  155.8242 C.ar    1  UNL1        0.0082
      9 C         140.6507  146.1970  157.0551 C.ar    1  UNL1        0.0197
     10 C         140.7359  145.1750  158.1497 C.ar    1  UNL1        0.0844
     11 N         141.5443  145.4601  159.3807 N.ar    1  UNL1       -0.2119
     12 C         141.6295  144.4381  160.4754 C.ar    1  UNL1        0.2211
     13 O         142.4379  144.7232  161.7064 O.3     1  UNL1       -0.4563
     14 C         141.7886  145.3604  162.8990 C.3     1  UNL1        0.2542
     15 C         140.0053  142.1361  162.5635 C.ar    1  UNL1        0.0215
     16 C         138.5335  142.1269  162.2745 C.ar    1  UNL1       -0.0007
     17 C         137.5471  142.1540  163.4043 C.ar    1  UNL1        0.0030
     18 C         138.0326  142.1902  164.8231 C.ar    1  UNL1        0.0402
     19 C         139.5046  142.1994  165.1121 C.ar    1  UNL1        0.1761
     20 C         140.4909  142.1723  163.9823 C.ar    1  UNL1        0.1728
     21 O         141.8704  142.1889  164.5709 O.3     1  UNL1       -0.4349
     22 C         141.7367  142.2263  166.0645 C.3     1  UNL1        0.4294
     23 O         140.2745  142.2327  166.3989 O.3     1  UNL1       -0.4346
     24 C         142.0632  141.0600  161.3986 C.3     1  UNL1        0.1162
     25 O         143.0945  142.1029  161.7125 O.3     1  UNL1       -0.3820
     26 H         143.9702  141.6881  161.7588 H       1  UNL1        0.2107
     27 C         139.6282  138.6926  159.3452 C.ar    1  UNL1        0.2272
     28 C         140.6596  139.7355  159.6592 C.ar    1  UNL1        0.0559
     29 C         141.0318  140.0170  161.0847 C.ar    1  UNL1        0.0117
     30 C         140.3728  139.2555  162.1963 C.ar    1  UNL1        0.0560
     31 C         139.3414  138.2125  161.8824 C.ar    1  UNL1        0.2319
     32 N         138.9692  137.9311  160.4568 N.ar    1  UNL1       -0.1766
     33 C         140.2087  137.6716  157.0277 C.3     1  UNL1        0.2542
     34 O         139.2560  138.4111  157.9196 O.3     1  UNL1       -0.4561
     35 O         138.6823  137.4510  162.9940 O.3     1  UNL1       -0.4067
     36 C         139.0432  137.7435  164.4203 C.3     1  UNL1        0.5097
     37 F         140.2564  137.1083  165.0324 F       1  UNL1       -0.1549
     38 F         138.1908  138.6712  165.2345 F       1  UNL1       -0.1549
     39 C         143.1348  140.0109  161.3635 C.3     1  UNL1        0.0491
     40 C         144.5173  140.3346  161.8468 C.3     1  UNL1        0.0750
     41 N         144.8007  140.4030  163.3182 N.3     1  UNL1       -0.2702
     42 C         145.7313  141.4497  163.8549 C.3     1  UNL1        0.0897
     43 C         144.1533  139.4247  164.2529 C.3     1  UNL1        0.0897
@<TRIPOS>BOND
     1    33    34    1
     2    34    27    1
     3    27    28   ar
     4    28    29   ar
     5    29    24    1
     6    24    25    1
     7    24    39    1
     8    39    40    1
     9    40    41    1
    10    41    42    1
    11    41    43    1
    12    24     1    1
    13     1     2    1
    14     2     3   ar
    15     3     4   ar
    16     4     5   ar
    17     5     6   ar
    18     6     7    1
    19     6     8   ar
    20     8     9   ar
    21     9    10   ar
    22    10    11   ar
    23    11    12   ar
    24    12    13    1
    25    13    14    1
    26     1    15    1
    27    15    16   ar
    28    16    17   ar
    29    17    18   ar
    30    18    19   ar
    31    19    20   ar
    32    20    21    1
    33    21    22    1
    34    22    23    1
    35    29    30   ar
    36    30    31   ar
    37    31    35    1
    38    35    36    1
    39    36    37    1
    40    36    38    1
    41    31    32   ar
    42    32    27   ar
    43    12     2   ar
    44    20    15   ar
    45    10     4   ar
    46    23    19    1
    47    25    26    1
@<TRIPOS>MOLECULE
*****
 43 47 0 0 0
SMALL
GASTEIGER

@<TRIPOS>ATOM
      1 C         140.9958  139.9797  162.4598 C.3     1  UNL1        0.0807
      2 C         141.4576  139.2616  161.2264 C.ar    1  UNL1        0.0375
      3 C         140.7299  139.4552  159.9291 C.ar    1  UNL1        0.0023
      4 C         141.1917  138.7371  158.6957 C.ar    1  UNL1        0.0181
      5 C         140.4640  138.9307  157.3984 C.ar    1  UNL1        0.0082
      6 C         140.9258  138.2126  156.1651 C.ar    1  UNL1        0.0347
      7 BR        140.1981  138.4062  154.8677 Br      1  UNL1       -0.0490
      8 C         142.1152  137.3010  156.2291 C.ar    1  UNL1        0.0082
      9 C         142.8429  137.1074  157.5263 C.ar    1  UNL1        0.0197
     10 C         142.3811  137.8254  158.7596 C.ar    1  UNL1        0.0844
     11 N         143.1088  137.6319  160.0570 N.ar    1  UNL1       -0.2119
     12 C         142.6470  138.3499  161.2903 C.ar    1  UNL1        0.2211
     13 O         143.3747  138.1564  162.5877 O.3     1  UNL1       -0.4563
     14 C         144.5713  139.0016  162.9098 C.3     1  UNL1        0.2542
     15 C         141.7849  141.1387  162.9925 C.ar    1  UNL1        0.0215
     16 C         142.2111  141.1582  164.4305 C.ar    1  UNL1       -0.0007
     17 C         143.0002  142.3173  164.9634 C.ar    1  UNL1        0.0030
     18 C         143.3631  143.4569  164.0581 C.ar    1  UNL1        0.0402
     19 C         142.9368  143.4374  162.6200 C.ar    1  UNL1        0.1761
     20 C         142.1478  142.2784  162.0872 C.ar    1  UNL1        0.1728
     21 O         141.8692  142.5353  160.6359 O.3     1  UNL1       -0.4349
     22 C         142.4861  143.8532  160.2717 C.3     1  UNL1        0.4294
     23 O         143.1460  144.4107  161.4980 O.3     1  UNL1       -0.4346
     24 C         139.7450  139.5386  163.1604 C.3     1  UNL1        0.1162
     25 O         140.3996  138.2346  163.5083 O.3     1  UNL1       -0.3820
     26 H         139.7781  137.6846  164.0104 H       1  UNL1        0.2107
     27 C         138.2032  142.5092  161.0278 C.ar    1  UNL1        0.2272
     28 C         138.8578  141.2052  161.3757 C.ar    1  UNL1        0.0559
     29 C         139.0903  140.8426  162.8124 C.ar    1  UNL1        0.0117
     30 C         138.6681  141.7838  163.9013 C.ar    1  UNL1        0.0560
     31 C         138.0134  143.0878  163.5534 C.ar    1  UNL1        0.2319
     32 N         137.7810  143.4505  162.1166 N.ar    1  UNL1       -0.1766
     33 C         138.9129  142.3816  158.5317 C.3     1  UNL1        0.2542
     34 O         137.9707  142.8719  159.5909 O.3     1  UNL1       -0.4561
     35 O         137.5912  144.0291  164.6423 O.3     1  UNL1       -0.4067
     36 C         138.6213  144.8287  165.3837 C.3     1  UNL1        0.5097
     37 F         138.2024  145.7453  166.4947 F       1  UNL1       -0.1549
     38 F         140.0704  144.7116  165.0140 F       1  UNL1       -0.1549
     39 C         138.4941  139.0975  163.8610 C.3     1  UNL1        0.0491
     40 C         138.5804  138.1718  165.0381 C.3     1  UNL1        0.0750
     41 N         138.4242  138.7109  166.4291 N.3     1  UNL1       -0.2702
     42 C         139.3771  139.7492  166.9426 C.3     1  UNL1        0.0897
     43 C         137.3149  138.2116  167.3067 C.3     1  UNL1        0.0897
@<TRIPOS>BOND
     1    33    34    1
     2    34    27    1
     3    27    28   ar
     4    28    29   ar
     5    29    24    1
     6    24    25    1
     7    24    39    1
     8    39    40    1
     9    40    41    1
    10    41    42    1
    11    41    43    1
    12    24     1    1
    13     1     2    1
    14     2     3   ar
    15     3     4   ar
    16     4     5   ar
    17     5     6   ar
    18     6     7    1
    19     6     8   ar
    20     8     9   ar
    21     9    10   ar
    22    10    11   ar
    23    11    12   ar
    24    12    13    1
    25    13    14    1
    26     1    15    1
    27    15    16   ar
    28    16    17   ar
    29    17    18   ar
    30    18    19   ar
    31    19    20   ar
    32    20    21    1
    33    21    22    1
    34    22    23    1
    35    29    30   ar
    36    30    31   ar
    37    31    35    1
    38    35    36    1
    39    36    37    1
    40    36    38    1
    41    31    32   ar
    42    32    27   ar
    43    12     2   ar
    44    20    15   ar
    45    10     4   ar
    46    23    19    1
    47    25    26    1
