@<TRIPOS>MOLECULE
*****
 38 43 0 0 0
SMALL
GASTEIGER

@<TRIPOS>ATOM
      1 C         142.8259  138.0425  159.4154 C.ar    1  UNL1        0.1233
      2 C         142.1999  137.8945  160.7705 C.ar    1  UNL1        0.1180
      3 N         142.7553  138.9690  161.6576 N.ar    1  UNL1       -0.2233
      4 N         143.7246  139.7811  160.8507 N.ar    1  UNL1       -0.0634
      5 N         143.7682  139.2085  159.4650 N.ar    1  UNL1       -0.1287
      6 C         142.4033  139.1923  163.0985 C.3     1  UNL1        0.1834
      7 C         143.4397  138.7655  164.0953 C.3     1  UNL1        0.0386
      8 C         143.3901  138.8539  165.5919 C.3     1  UNL1        0.0301
      9 C         142.2920  139.3907  166.4613 C.ar    1  UNL1       -0.0084
     10 C         142.6471  139.2935  167.9154 C.ar    1  UNL1       -0.0030
     11 C         141.6823  139.7774  168.9569 C.ar    1  UNL1       -0.0002
     12 C         140.3624  140.3586  168.5444 C.ar    1  UNL1        0.0013
     13 C         140.0073  140.4558  167.0903 C.ar    1  UNL1        0.0146
     14 C         140.9721  139.9719  166.0488 C.ar    1  UNL1        0.0502
     15 N         140.4245  140.1597  164.6650 N.am    1  UNL1       -0.2530
     16 C         141.0613  139.8128  163.3520 C.2     1  UNL1        0.2520
     17 O         140.2489  140.1279  162.1311 O.2     1  UNL1       -0.2724
     18 C         139.0593  140.7760  164.5835 C.3     1  UNL1        0.1263
     19 C         138.9004  142.1848  164.0934 C.ar    1  UNL1        0.0172
     20 C         139.7010  143.2900  164.7158 C.ar    1  UNL1        0.0005
     21 C         139.5421  144.6989  164.2258 C.ar    1  UNL1        0.0204
     22 C         138.5826  145.0023  163.1134 C.ar    1  UNL1        0.0989
     23 N         137.7820  143.8970  162.4910 N.ar    1  UNL1       -0.2426
     24 C         137.9409  142.4881  162.9810 C.ar    1  UNL1        0.0962
     25 C         143.0873  135.0598  156.8106 C.ar    1  UNL1        0.1547
     26 C         143.3564  135.9257  158.0054 C.ar    1  UNL1        0.0400
     27 C         142.5568  137.1765  158.2206 C.ar    1  UNL1        0.0241
     28 C         141.4881  137.5613  157.2409 C.ar    1  UNL1        0.0033
     29 C         141.2190  136.6953  156.0460 C.ar    1  UNL1        0.0207
     30 C         142.0186  135.4446  155.8309 C.ar    1  UNL1        0.0994
     31 N         141.7494  134.5786  154.6360 N.ar    1  UNL1       -0.2839
     32 C         141.9602  134.9645  153.2019 C.ar    1  UNL1        0.1826
     33 N         141.5633  133.7991  152.3451 N.ar    1  UNL1       -0.2280
     34 C         141.1072  132.6929  153.2496 C.ar    1  UNL1        0.0786
     35 C         140.6213  131.3421  152.8146 C.3     1  UNL1        0.0538
     36 C         141.2222  133.1746  154.6654 C.ar    1  UNL1        0.0963
     37 C         144.4786  133.0860  157.7689 C.3     1  UNL1        0.2525
     38 O         143.8869  133.8091  156.5954 O.3     1  UNL1       -0.4700
@<TRIPOS>BOND
     1    37    38    1
     2    38    25    1
     3    25    26   ar
     4    26    27   ar
     5    27     1    1
     6     1     2   ar
     7     2     3   ar
     8     3     6    1
     9     6     7    1
    10     7     8    1
    11     8     9    1
    12     9    10   ar
    13    10    11   ar
    14    11    12   ar
    15    12    13   ar
    16    13    14   ar
    17    14    15    1
    18    15    18    1
    19    18    19    1
    20    19    20   ar
    21    20    21   ar
    22    21    22   ar
    23    22    23   ar
    24    23    24   ar
    25    15    16   am
    26    16    17    2
    27     3     4   ar
    28     4     5   ar
    29    27    28   ar
    30    28    29   ar
    31    29    30   ar
    32    30    31    1
    33    31    32   ar
    34    32    33   ar
    35    33    34   ar
    36    34    35    1
    37    34    36   ar
    38    30    25   ar
    39    36    31   ar
    40     5     1   ar
    41    16     6    1
    42    14     9   ar
    43    24    19   ar
@<TRIPOS>MOLECULE
*****
 38 43 0 0 0
SMALL
GASTEIGER

@<TRIPOS>ATOM
      1 C         142.8184  137.9619  159.4317 C.ar    1  UNL1        0.1233
      2 C         142.2162  137.8260  160.7987 C.ar    1  UNL1        0.1180
      3 N         142.7481  138.9388  161.6524 N.ar    1  UNL1       -0.2233
      4 N         143.6792  139.7625  160.8129 N.ar    1  UNL1       -0.0634
      5 N         143.7226  139.1587  159.4404 N.ar    1  UNL1       -0.1287
      6 C         142.4086  139.1848  163.0926 C.3     1  UNL1        0.1834
      7 C         143.4395  138.7433  164.0888 C.3     1  UNL1        0.0386
      8 C         143.3994  138.8477  165.5846 C.3     1  UNL1        0.0301
      9 C         142.3187  139.4194  166.4537 C.ar    1  UNL1       -0.0084
     10 C         142.6786  139.3282  167.9070 C.ar    1  UNL1       -0.0030
     11 C         141.7307  139.8454  168.9482 C.ar    1  UNL1       -0.0002
     12 C         140.4231  140.4539  168.5361 C.ar    1  UNL1        0.0013
     13 C         140.0633  140.5451  167.0827 C.ar    1  UNL1        0.0146
     14 C         141.0111  140.0278  166.0416 C.ar    1  UNL1        0.0502
     15 N         140.4613  140.2149  164.6586 N.am    1  UNL1       -0.2530
     16 C         141.0831  139.8397  163.3461 C.2     1  UNL1        0.2520
     17 O         140.2725  140.1621  162.1260 O.2     1  UNL1       -0.2724
     18 C         139.1108  140.8628  164.5772 C.3     1  UNL1        0.1263
     19 C         138.9827  142.2685  164.0696 C.ar    1  UNL1        0.0172
     20 C         139.9258  143.3296  164.5538 C.ar    1  UNL1        0.0005
     21 C         139.7978  144.7353  164.0462 C.ar    1  UNL1        0.0204
     22 C         138.7265  145.0799  163.0544 C.ar    1  UNL1        0.0989
     23 N         137.7834  144.0187  162.5701 N.ar    1  UNL1       -0.2426
     24 C         137.9115  142.6130  163.0777 C.ar    1  UNL1        0.0962
     25 C         141.2256  136.4952  156.1059 C.ar    1  UNL1        0.1547
     26 C         141.4823  137.3977  157.2761 C.ar    1  UNL1        0.0400
     27 C         142.5616  137.0595  158.2614 C.ar    1  UNL1        0.0241
     28 C         143.3840  135.8187  158.0765 C.ar    1  UNL1        0.0033
     29 C         143.1271  134.9163  156.9062 C.ar    1  UNL1        0.0207
     30 C         142.0480  135.2545  155.9209 C.ar    1  UNL1        0.0994
     31 N         141.7911  134.3520  154.7506 N.ar    1  UNL1       -0.2839
     32 C         142.0962  134.6614  153.3149 C.ar    1  UNL1        0.1826
     33 N         141.6778  133.4822  152.4876 N.ar    1  UNL1       -0.2280
     34 C         141.1141  132.4441  153.4119 C.ar    1  UNL1        0.0786
     35 C         140.5750  131.1037  153.0085 C.3     1  UNL1        0.0538
     36 C         141.1841  132.9816  154.8105 C.ar    1  UNL1        0.0963
     37 C         139.1057  137.8559  155.4695 C.3     1  UNL1        0.2525
     38 O         140.1463  136.8335  155.1205 O.3     1  UNL1       -0.4700
@<TRIPOS>BOND
     1    37    38    1
     2    38    25    1
     3    25    26   ar
     4    26    27   ar
     5    27     1    1
     6     1     2   ar
     7     2     3   ar
     8     3     6    1
     9     6     7    1
    10     7     8    1
    11     8     9    1
    12     9    10   ar
    13    10    11   ar
    14    11    12   ar
    15    12    13   ar
    16    13    14   ar
    17    14    15    1
    18    15    18    1
    19    18    19    1
    20    19    20   ar
    21    20    21   ar
    22    21    22   ar
    23    22    23   ar
    24    23    24   ar
    25    15    16   am
    26    16    17    2
    27     3     4   ar
    28     4     5   ar
    29    27    28   ar
    30    28    29   ar
    31    29    30   ar
    32    30    31    1
    33    31    32   ar
    34    32    33   ar
    35    33    34   ar
    36    34    35    1
    37    34    36   ar
    38    30    25   ar
    39    36    31   ar
    40     5     1   ar
    41    16     6    1
    42    14     9   ar
    43    24    19   ar
@<TRIPOS>MOLECULE
*****
 38 43 0 0 0
SMALL
GASTEIGER

@<TRIPOS>ATOM
      1 C         142.9037  137.2161  157.5423 C.ar    1  UNL1        0.1233
      2 C         142.6154  137.4707  158.9922 C.ar    1  UNL1        0.1180
      3 N         143.0541  138.8687  159.3135 N.ar    1  UNL1       -0.2233
      4 N         143.6136  139.4781  158.0623 N.ar    1  UNL1       -0.0634
      5 N         143.5206  138.4568  156.9676 N.ar    1  UNL1       -0.1287
      6 C         142.9514  139.5395  160.6513 C.3     1  UNL1        0.1834
      7 C         144.1289  139.3575  161.5626 C.3     1  UNL1        0.0386
      8 C         144.3304  139.8947  162.9486 C.3     1  UNL1        0.0301
      9 C         143.4046  140.7464  163.7655 C.ar    1  UNL1       -0.0084
     10 C         143.9937  141.0648  165.1076 C.ar    1  UNL1       -0.0030
     11 C         143.2267  141.9082  166.0824 C.ar    1  UNL1       -0.0002
     12 C         141.8704  142.4332  165.7150 C.ar    1  UNL1        0.0013
     13 C         141.2812  142.1148  164.3729 C.ar    1  UNL1        0.0146
     14 C         142.0483  141.2714  163.3981 C.ar    1  UNL1        0.0502
     15 N         141.2830  141.0742  162.1231 N.am    1  UNL1       -0.2530
     16 C         141.6849  140.3035  160.9007 C.2     1  UNL1        0.2520
     17 O         140.6886  140.2957  159.7794 O.2     1  UNL1       -0.2724
     18 C         139.9379  141.7353  162.0627 C.3     1  UNL1        0.1263
     19 C         139.8385  143.2138  161.8293 C.ar    1  UNL1        0.0172
     20 C         140.8489  143.9058  160.9632 C.ar    1  UNL1        0.0005
     21 C         140.7496  145.3842  160.7298 C.ar    1  UNL1        0.0204
     22 C         139.6399  146.1705  161.3626 C.ar    1  UNL1        0.0989
     23 N         138.6295  145.4784  162.2287 N.ar    1  UNL1       -0.2426
     24 C         138.7288  144.0000  162.4621 C.ar    1  UNL1        0.0962
     25 C         143.0072  133.3948  156.4763 C.ar    1  UNL1        0.1547
     26 C         143.2868  134.6666  157.2207 C.ar    1  UNL1        0.0400
     27 C         142.6242  135.9442  156.7979 C.ar    1  UNL1        0.0241
     28 C         141.6821  135.9500  155.6307 C.ar    1  UNL1        0.0033
     29 C         141.4026  134.6781  154.8863 C.ar    1  UNL1        0.0207
     30 C         142.0651  133.4005  155.3091 C.ar    1  UNL1        0.0994
     31 N         141.7856  132.1286  154.5646 N.ar    1  UNL1       -0.2839
     32 C         142.5521  131.6116  153.3835 C.ar    1  UNL1        0.1826
     33 N         141.9306  130.3139  152.9595 N.ar    1  UNL1       -0.2280
     34 C         140.7801  130.0289  153.8786 C.ar    1  UNL1        0.0786
     35 C         139.8775  128.8324  153.8167 C.3     1  UNL1        0.0538
     36 C         140.6904  131.1504  154.8707 C.ar    1  UNL1        0.0963
     37 C         144.9987  131.7338  156.3189 C.3     1  UNL1        0.2525
     38 O         143.6697  132.1172  156.8992 O.3     1  UNL1       -0.4700
@<TRIPOS>BOND
     1    37    38    1
     2    38    25    1
     3    25    26   ar
     4    26    27   ar
     5    27     1    1
     6     1     2   ar
     7     2     3   ar
     8     3     6    1
     9     6     7    1
    10     7     8    1
    11     8     9    1
    12     9    10   ar
    13    10    11   ar
    14    11    12   ar
    15    12    13   ar
    16    13    14   ar
    17    14    15    1
    18    15    18    1
    19    18    19    1
    20    19    20   ar
    21    20    21   ar
    22    21    22   ar
    23    22    23   ar
    24    23    24   ar
    25    15    16   am
    26    16    17    2
    27     3     4   ar
    28     4     5   ar
    29    27    28   ar
    30    28    29   ar
    31    29    30   ar
    32    30    31    1
    33    31    32   ar
    34    32    33   ar
    35    33    34   ar
    36    34    35    1
    37    34    36   ar
    38    30    25   ar
    39    36    31   ar
    40     5     1   ar
    41    16     6    1
    42    14     9   ar
    43    24    19   ar
@<TRIPOS>MOLECULE
*****
 38 43 0 0 0
SMALL
GASTEIGER

@<TRIPOS>ATOM
      1 C         142.9153  137.3223  157.6446 C.ar    1  UNL1        0.1233
      2 C         142.7469  137.6098  159.1072 C.ar    1  UNL1        0.1180
      3 N         143.0969  139.0497  159.3400 N.ar    1  UNL1       -0.2233
      4 N         143.4816  139.6521  158.0213 N.ar    1  UNL1       -0.0634
      5 N         143.3694  138.5846  156.9735 N.ar    1  UNL1       -0.1287
      6 C         143.0674  139.7620  160.6597 C.3     1  UNL1        0.1834
      7 C         144.4006  140.1881  161.1992 C.3     1  UNL1        0.0386
      8 C         144.7041  140.9115  162.4777 C.3     1  UNL1        0.0301
      9 C         143.7496  141.3874  163.5325 C.ar    1  UNL1       -0.0084
     10 C         144.4710  142.0692  164.6570 C.ar    1  UNL1       -0.0030
     11 C         143.6985  142.6212  165.8183 C.ar    1  UNL1       -0.0002
     12 C         142.2046  142.4912  165.8550 C.ar    1  UNL1        0.0013
     13 C         141.4832  141.8094  164.7304 C.ar    1  UNL1        0.0146
     14 C         142.2557  141.2575  163.5692 C.ar    1  UNL1        0.0502
     15 N         141.3474  140.6195  162.5602 N.am    1  UNL1       -0.2530
     16 C         141.7086  139.9540  161.2654 C.2     1  UNL1        0.2520
     17 O         140.5590  139.4083  160.4712 O.2     1  UNL1       -0.2724
     18 C         139.8844  140.6514  162.8897 C.3     1  UNL1        0.1263
     19 C         139.3298  139.7253  163.9313 C.ar    1  UNL1        0.0172
     20 C         139.7762  138.2940  163.9764 C.ar    1  UNL1        0.0005
     21 C         139.2216  137.3679  165.0180 C.ar    1  UNL1        0.0204
     22 C         138.2206  137.8732  166.0144 C.ar    1  UNL1        0.0989
     23 N         137.7742  139.3046  165.9692 N.ar    1  UNL1       -0.2426
     24 C         138.3288  140.2307  164.9276 C.ar    1  UNL1        0.0962
     25 C         143.0578  133.4380  156.8438 C.ar    1  UNL1        0.1547
     26 C         143.3009  134.7562  157.5170 C.ar    1  UNL1        0.0400
     27 C         142.6723  136.0041  156.9715 C.ar    1  UNL1        0.0241
     28 C         141.8007  135.9338  155.7527 C.ar    1  UNL1        0.0033
     29 C         141.5577  134.6155  155.0795 C.ar    1  UNL1        0.0207
     30 C         142.1863  133.3677  155.6251 C.ar    1  UNL1        0.0994
     31 N         141.9432  132.0494  154.9518 N.ar    1  UNL1       -0.2839
     32 C         142.9138  131.3147  154.0754 C.ar    1  UNL1        0.1826
     33 N         142.2573  130.0458  153.6188 N.ar    1  UNL1       -0.2280
     34 C         140.8810  129.9961  154.2130 C.ar    1  UNL1        0.0786
     35 C         139.8753  128.9004  154.0176 C.3     1  UNL1        0.0538
     36 C         140.6868  131.2344  155.0368 C.ar    1  UNL1        0.0963
     37 C         145.1689  132.1319  157.6103 C.3     1  UNL1        0.2525
     38 O         143.6864  132.1901  157.3894 O.3     1  UNL1       -0.4700
@<TRIPOS>BOND
     1    37    38    1
     2    38    25    1
     3    25    26   ar
     4    26    27   ar
     5    27     1    1
     6     1     2   ar
     7     2     3   ar
     8     3     6    1
     9     6     7    1
    10     7     8    1
    11     8     9    1
    12     9    10   ar
    13    10    11   ar
    14    11    12   ar
    15    12    13   ar
    16    13    14   ar
    17    14    15    1
    18    15    18    1
    19    18    19    1
    20    19    20   ar
    21    20    21   ar
    22    21    22   ar
    23    22    23   ar
    24    23    24   ar
    25    15    16   am
    26    16    17    2
    27     3     4   ar
    28     4     5   ar
    29    27    28   ar
    30    28    29   ar
    31    29    30   ar
    32    30    31    1
    33    31    32   ar
    34    32    33   ar
    35    33    34   ar
    36    34    35    1
    37    34    36   ar
    38    30    25   ar
    39    36    31   ar
    40     5     1   ar
    41    16     6    1
    42    14     9   ar
    43    24    19   ar
@<TRIPOS>MOLECULE
*****
 38 43 0 0 0
SMALL
GASTEIGER

@<TRIPOS>ATOM
      1 C         140.7951  139.1216  157.1059 C.ar    1  UNL1        0.1233
      2 C         140.4814  139.4223  158.5415 C.ar    1  UNL1        0.1180
      3 N         140.3060  140.9059  158.6768 N.ar    1  UNL1       -0.2233
      4 N         140.5113  141.5220  157.3247 N.ar    1  UNL1       -0.0634
      5 N         140.8136  140.4193  156.3538 N.ar    1  UNL1       -0.1287
      6 C         139.9822  141.6437  159.9420 C.3     1  UNL1        0.1834
      7 C         138.5362  141.6475  160.3413 C.3     1  UNL1        0.0386
      8 C         137.8982  142.2888  161.5378 C.3     1  UNL1        0.0301
      9 C         138.5483  143.0846  162.6305 C.ar    1  UNL1       -0.0084
     10 C         137.5435  143.5480  163.6432 C.ar    1  UNL1       -0.0030
     11 C         137.9874  144.3626  164.8218 C.ar    1  UNL1       -0.0002
     12 C         139.4363  144.7137  164.9879 C.ar    1  UNL1        0.0013
     13 C         140.4411  144.2502  163.9753 C.ar    1  UNL1        0.0146
     14 C         139.9972  143.4357  162.7966 C.ar    1  UNL1        0.0502
     15 N         141.1537  143.0777  161.9109 N.am    1  UNL1       -0.2530
     16 C         141.1471  142.2802  160.6405 C.2     1  UNL1        0.2520
     17 O         142.4817  142.0947  159.9816 O.2     1  UNL1       -0.2724
     18 C         142.4941  143.5842  162.3544 C.3     1  UNL1        0.1263
     19 C         143.4968  142.6365  162.9431 C.ar    1  UNL1        0.0172
     20 C         143.0875  141.6969  164.0383 C.ar    1  UNL1        0.0005
     21 C         144.0901  140.7491  164.6271 C.ar    1  UNL1        0.0204
     22 C         145.5020  140.7411  164.1206 C.ar    1  UNL1        0.0989
     23 N         145.9113  141.6809  163.0254 N.ar    1  UNL1       -0.2426
     24 C         144.9087  142.6286  162.4366 C.ar    1  UNL1        0.0962
     25 C         142.5291  135.6377  156.3278 C.ar    1  UNL1        0.1547
     26 C         142.2781  136.9974  156.9093 C.ar    1  UNL1        0.0400
     27 C         141.0462  137.7619  156.5244 C.ar    1  UNL1        0.0241
     28 C         140.0654  137.1666  155.5581 C.ar    1  UNL1        0.0033
     29 C         140.3165  135.8069  154.9767 C.ar    1  UNL1        0.0207
     30 C         141.5483  135.0425  155.3615 C.ar    1  UNL1        0.0994
     31 N         141.7994  133.6827  154.7800 N.ar    1  UNL1       -0.2839
     32 C         141.3879  132.3743  155.3872 C.ar    1  UNL1        0.1826
     33 N         141.8402  131.2757  154.4717 N.ar    1  UNL1       -0.2280
     34 C         142.5313  131.9050  153.2985 C.ar    1  UNL1        0.0786
     35 C         143.1407  131.1749  152.1385 C.3     1  UNL1        0.0538
     36 C         142.5061  133.3926  153.4891 C.ar    1  UNL1        0.0963
     37 C         143.7184  133.9125  157.8637 C.3     1  UNL1        0.2525
     38 O         143.7610  134.8733  156.7126 O.3     1  UNL1       -0.4700
@<TRIPOS>BOND
     1    37    38    1
     2    38    25    1
     3    25    26   ar
     4    26    27   ar
     5    27     1    1
     6     1     2   ar
     7     2     3   ar
     8     3     6    1
     9     6     7    1
    10     7     8    1
    11     8     9    1
    12     9    10   ar
    13    10    11   ar
    14    11    12   ar
    15    12    13   ar
    16    13    14   ar
    17    14    15    1
    18    15    18    1
    19    18    19    1
    20    19    20   ar
    21    20    21   ar
    22    21    22   ar
    23    22    23   ar
    24    23    24   ar
    25    15    16   am
    26    16    17    2
    27     3     4   ar
    28     4     5   ar
    29    27    28   ar
    30    28    29   ar
    31    29    30   ar
    32    30    31    1
    33    31    32   ar
    34    32    33   ar
    35    33    34   ar
    36    34    35    1
    37    34    36   ar
    38    30    25   ar
    39    36    31   ar
    40     5     1   ar
    41    16     6    1
    42    14     9   ar
    43    24    19   ar
@<TRIPOS>MOLECULE
*****
 38 43 0 0 0
SMALL
GASTEIGER

@<TRIPOS>ATOM
      1 C         142.4856  138.7461  159.9930 C.ar    1  UNL1        0.1233
      2 C         141.8743  139.2017  161.2849 C.ar    1  UNL1        0.1180
      3 N         142.9498  139.2061  162.3305 N.ar    1  UNL1       -0.2233
      4 N         144.2258  138.7533  161.6848 N.ar    1  UNL1       -0.0634
      5 N         143.9389  138.4689  160.2402 N.ar    1  UNL1       -0.1287
      6 C         142.7793  139.5951  163.7691 C.3     1  UNL1        0.1834
      7 C         143.0278  138.5070  164.7713 C.3     1  UNL1        0.0386
      8 C         142.9412  138.5760  166.2672 C.3     1  UNL1        0.0301
      9 C         142.5847  139.7498  167.1304 C.ar    1  UNL1       -0.0084
     10 C         142.6160  139.3892  168.5861 C.ar    1  UNL1       -0.0030
     11 C         142.2894  140.4235  169.6221 C.ar    1  UNL1       -0.0002
     12 C         141.9314  141.8184  169.2025 C.ar    1  UNL1        0.0013
     13 C         141.9001  142.1790  167.7469 C.ar    1  UNL1        0.0146
     14 C         142.2268  141.1447  166.7108 C.ar    1  UNL1        0.0502
     15 N         142.1369  141.7103  165.3244 N.am    1  UNL1       -0.2530
     16 C         142.3828  141.0207  164.0152 C.2     1  UNL1        0.2520
     17 O         142.2093  141.8687  162.7902 O.2     1  UNL1       -0.2724
     18 C         141.7500  143.1568  165.2355 C.3     1  UNL1        0.1263
     19 C         140.4204  143.5435  164.6587 C.ar    1  UNL1        0.0172
     20 C         139.1936  142.7538  165.0070 C.ar    1  UNL1        0.0005
     21 C         137.8640  143.1405  164.4303 C.ar    1  UNL1        0.0204
     22 C         137.7612  144.3168  163.5052 C.ar    1  UNL1        0.0989
     23 N         138.9881  145.1065  163.1569 N.ar    1  UNL1       -0.2426
     24 C         140.3177  144.7198  163.7336 C.ar    1  UNL1        0.0962
     25 C         139.6818  139.0244  157.1982 C.ar    1  UNL1        0.1547
     26 C         140.3980  139.1762  158.5073 C.ar    1  UNL1        0.0400
     27 C         141.7693  138.5943  158.6839 C.ar    1  UNL1        0.0241
     28 C         142.4242  137.8607  157.5513 C.ar    1  UNL1        0.0033
     29 C         141.7079  137.7089  156.2422 C.ar    1  UNL1        0.0207
     30 C         140.3368  138.2907  156.0656 C.ar    1  UNL1        0.0994
     31 N         139.6205  138.1389  154.7564 N.ar    1  UNL1       -0.2839
     32 C         139.9833  138.8177  153.4689 C.ar    1  UNL1        0.1826
     33 N         139.0027  138.3800  152.4217 N.ar    1  UNL1       -0.2280
     34 C         138.0338  137.4306  153.0619 C.ar    1  UNL1        0.0786
     35 C         136.8848  136.7498  152.3791 C.3     1  UNL1        0.0538
     36 C         138.4156  137.2816  154.5048 C.ar    1  UNL1        0.0963
     37 C         138.1479  140.9814  156.4450 C.3     1  UNL1        0.2525
     38 O         138.3106  139.6062  157.0217 O.3     1  UNL1       -0.4700
@<TRIPOS>BOND
     1    37    38    1
     2    38    25    1
     3    25    26   ar
     4    26    27   ar
     5    27     1    1
     6     1     2   ar
     7     2     3   ar
     8     3     6    1
     9     6     7    1
    10     7     8    1
    11     8     9    1
    12     9    10   ar
    13    10    11   ar
    14    11    12   ar
    15    12    13   ar
    16    13    14   ar
    17    14    15    1
    18    15    18    1
    19    18    19    1
    20    19    20   ar
    21    20    21   ar
    22    21    22   ar
    23    22    23   ar
    24    23    24   ar
    25    15    16   am
    26    16    17    2
    27     3     4   ar
    28     4     5   ar
    29    27    28   ar
    30    28    29   ar
    31    29    30   ar
    32    30    31    1
    33    31    32   ar
    34    32    33   ar
    35    33    34   ar
    36    34    35    1
    37    34    36   ar
    38    30    25   ar
    39    36    31   ar
    40     5     1   ar
    41    16     6    1
    42    14     9   ar
    43    24    19   ar
@<TRIPOS>MOLECULE
*****
 38 43 0 0 0
SMALL
GASTEIGER

@<TRIPOS>ATOM
      1 C         143.6587  139.7765  160.2129 C.ar    1  UNL1        0.1233
      2 C         143.2249  140.3535  161.5278 C.ar    1  UNL1        0.1180
      3 N         143.0369  139.2200  162.4920 N.ar    1  UNL1       -0.2233
      4 N         143.3545  137.9424  161.7731 N.ar    1  UNL1       -0.0634
      5 N         143.7388  138.2863  160.3645 N.ar    1  UNL1       -0.1287
      6 C         142.6067  139.3426  163.9238 C.3     1  UNL1        0.1834
      7 C         143.5989  138.8690  164.9442 C.3     1  UNL1        0.0386
      8 C         143.4707  138.8584  166.4387 C.3     1  UNL1        0.0301
      9 C         142.3186  139.3188  167.2819 C.ar    1  UNL1       -0.0084
     10 C         142.6003  139.1326  168.7434 C.ar    1  UNL1       -0.0030
     11 C         141.5737  139.5311  169.7617 C.ar    1  UNL1       -0.0002
     12 C         140.2653  140.1158  169.3186 C.ar    1  UNL1        0.0013
     13 C         139.9836  140.3019  167.8571 C.ar    1  UNL1        0.0146
     14 C         141.0103  139.9035  166.8388 C.ar    1  UNL1        0.0502
     15 N         140.5309  140.1721  165.4431 N.am    1  UNL1       -0.2530
     16 C         141.2413  139.9226  164.1458 C.2     1  UNL1        0.2520
     17 O         140.4866  140.3032  162.9067 O.2     1  UNL1       -0.2724
     18 C         139.1596  140.7694  165.3297 C.3     1  UNL1        0.1263
     19 C         138.9872  142.1518  164.7734 C.ar    1  UNL1        0.0172
     20 C         137.8911  142.4326  163.7887 C.ar    1  UNL1        0.0005
     21 C         137.7186  143.8150  163.2325 C.ar    1  UNL1        0.0204
     22 C         138.6423  144.9165  163.6609 C.ar    1  UNL1        0.0989
     23 N         139.7385  144.6356  164.6456 N.ar    1  UNL1       -0.2426
     24 C         139.9109  143.2532  165.2019 C.ar    1  UNL1        0.0962
     25 C         144.0307  140.7072  156.3730 C.ar    1  UNL1        0.1547
     26 C         143.7298  139.9304  157.6203 C.ar    1  UNL1        0.0400
     27 C         143.9596  140.5532  158.9655 C.ar    1  UNL1        0.0241
     28 C         144.4903  141.9528  159.0632 C.ar    1  UNL1        0.0033
     29 C         144.7912  142.7296  157.8157 C.ar    1  UNL1        0.0207
     30 C         144.5614  142.1068  156.4707 C.ar    1  UNL1        0.0994
     31 N         144.8623  142.8836  155.2232 N.ar    1  UNL1       -0.2839
     32 C         146.1595  142.8742  154.4700 C.ar    1  UNL1        0.1826
     33 N         146.0177  143.7910  153.2914 N.ar    1  UNL1       -0.2280
     34 C         144.6330  144.3670  153.3160 C.ar    1  UNL1        0.0786
     35 C         144.0624  145.3340  152.3214 C.3     1  UNL1        0.0538
     36 C         143.9189  143.8062  154.5100 C.ar    1  UNL1        0.0963
     37 C         144.8939  139.2950  154.3703 C.3     1  UNL1        0.2525
     38 O         143.8010  140.0844  155.0279 O.3     1  UNL1       -0.4700
@<TRIPOS>BOND
     1    37    38    1
     2    38    25    1
     3    25    26   ar
     4    26    27   ar
     5    27     1    1
     6     1     2   ar
     7     2     3   ar
     8     3     6    1
     9     6     7    1
    10     7     8    1
    11     8     9    1
    12     9    10   ar
    13    10    11   ar
    14    11    12   ar
    15    12    13   ar
    16    13    14   ar
    17    14    15    1
    18    15    18    1
    19    18    19    1
    20    19    20   ar
    21    20    21   ar
    22    21    22   ar
    23    22    23   ar
    24    23    24   ar
    25    15    16   am
    26    16    17    2
    27     3     4   ar
    28     4     5   ar
    29    27    28   ar
    30    28    29   ar
    31    29    30   ar
    32    30    31    1
    33    31    32   ar
    34    32    33   ar
    35    33    34   ar
    36    34    35    1
    37    34    36   ar
    38    30    25   ar
    39    36    31   ar
    40     5     1   ar
    41    16     6    1
    42    14     9   ar
    43    24    19   ar
@<TRIPOS>MOLECULE
*****
 38 43 0 0 0
SMALL
GASTEIGER

@<TRIPOS>ATOM
      1 C         143.3622  136.9780  156.2883 C.ar    1  UNL1        0.1233
      2 C         142.6578  137.8164  157.3135 C.ar    1  UNL1        0.1180
      3 N         143.3456  139.1479  157.3755 N.ar    1  UNL1       -0.2233
      4 N         144.4751  139.1325  156.3887 N.ar    1  UNL1       -0.0634
      5 N         144.4854  137.7915  155.7168 N.ar    1  UNL1       -0.1287
      6 C         142.9698  140.2937  158.2677 C.3     1  UNL1        0.1834
      7 C         142.0390  141.3064  157.6692 C.3     1  UNL1        0.0386
      8 C         141.4830  142.5508  158.2957 C.3     1  UNL1        0.0301
      9 C         141.7205  143.0898  159.6752 C.ar    1  UNL1       -0.0084
     10 C         140.9690  144.3682  159.9010 C.ar    1  UNL1       -0.0030
     11 C         141.0696  145.0743  161.2205 C.ar    1  UNL1       -0.0002
     12 C         141.9218  144.5021  162.3143 C.ar    1  UNL1        0.0013
     13 C         142.6733  143.2237  162.0886 C.ar    1  UNL1        0.0146
     14 C         142.5726  142.5176  160.7691 C.ar    1  UNL1        0.0502
     15 N         143.3977  141.2650  160.7534 N.am    1  UNL1       -0.2530
     16 C         143.5745  140.2752  159.6403 C.2     1  UNL1        0.2520
     17 O         144.4750  139.1135  159.9392 O.2     1  UNL1       -0.2724
     18 C         144.1449  140.9621  162.0184 C.3     1  UNL1        0.1263
     19 C         143.5448  140.0452  163.0427 C.ar    1  UNL1        0.0172
     20 C         144.3272  139.6749  164.2677 C.ar    1  UNL1        0.0005
     21 C         143.7272  138.7580  165.2921 C.ar    1  UNL1        0.0204
     22 C         142.3447  138.2115  165.0915 C.ar    1  UNL1        0.0989
     23 N         141.5623  138.5819  163.8664 N.ar    1  UNL1       -0.2426
     24 C         142.1623  139.4988  162.8420 C.ar    1  UNL1        0.0962
     25 C         142.8258  133.0518  156.5032 C.ar    1  UNL1        0.1547
     26 C         143.1820  134.4568  156.8890 C.ar    1  UNL1        0.0400
     27 C         143.0060  135.5730  155.9025 C.ar    1  UNL1        0.0241
     28 C         142.4738  135.2841  154.5302 C.ar    1  UNL1        0.0033
     29 C         142.1176  133.8790  154.1444 C.ar    1  UNL1        0.0207
     30 C         142.2936  132.7629  155.1308 C.ar    1  UNL1        0.0994
     31 N         141.9373  131.3577  154.7450 N.ar    1  UNL1       -0.2839
     32 C         142.8441  130.3720  154.0696 C.ar    1  UNL1        0.1826
     33 N         142.0789  129.0968  153.8740 N.ar    1  UNL1       -0.2280
     34 C         140.6993  129.2944  154.4284 C.ar    1  UNL1        0.0786
     35 C         139.6001  128.2738  154.4421 C.3     1  UNL1        0.0538
     36 C         140.6117  130.6917  154.9667 C.ar    1  UNL1        0.0963
     37 C         144.3135  131.2136  157.5792 C.3     1  UNL1        0.2525
     38 O         143.0018  131.9356  157.4897 O.3     1  UNL1       -0.4700
@<TRIPOS>BOND
     1    37    38    1
     2    38    25    1
     3    25    26   ar
     4    26    27   ar
     5    27     1    1
     6     1     2   ar
     7     2     3   ar
     8     3     6    1
     9     6     7    1
    10     7     8    1
    11     8     9    1
    12     9    10   ar
    13    10    11   ar
    14    11    12   ar
    15    12    13   ar
    16    13    14   ar
    17    14    15    1
    18    15    18    1
    19    18    19    1
    20    19    20   ar
    21    20    21   ar
    22    21    22   ar
    23    22    23   ar
    24    23    24   ar
    25    15    16   am
    26    16    17    2
    27     3     4   ar
    28     4     5   ar
    29    27    28   ar
    30    28    29   ar
    31    29    30   ar
    32    30    31    1
    33    31    32   ar
    34    32    33   ar
    35    33    34   ar
    36    34    35    1
    37    34    36   ar
    38    30    25   ar
    39    36    31   ar
    40     5     1   ar
    41    16     6    1
    42    14     9   ar
    43    24    19   ar
@<TRIPOS>MOLECULE
*****
 38 43 0 0 0
SMALL
GASTEIGER

@<TRIPOS>ATOM
      1 C         142.3463  138.8498  160.9602 C.ar    1  UNL1        0.1233
      2 C         141.3462  138.3695  159.9506 C.ar    1  UNL1        0.1180
      3 N         142.0243  138.3201  158.6136 N.ar    1  UNL1       -0.2233
      4 N         143.4435  138.7699  158.7967 N.ar    1  UNL1       -0.0634
      5 N         143.6425  139.0973  160.2470 N.ar    1  UNL1       -0.1287
      6 C         141.3939  137.8955  157.3204 C.3     1  UNL1        0.1834
      7 C         140.0815  138.5438  156.9924 C.3     1  UNL1        0.0386
      8 C         139.2104  138.3354  155.7892 C.3     1  UNL1        0.0301
      9 C         139.4363  137.4273  154.6169 C.ar    1  UNL1       -0.0084
     10 C         138.3139  137.5216  153.6263 C.ar    1  UNL1       -0.0030
     11 C         138.3444  136.6919  152.3771 C.ar    1  UNL1       -0.0002
     12 C         139.4973  135.7679  152.1185 C.ar    1  UNL1        0.0013
     13 C         140.6198  135.6736  153.1090 C.ar    1  UNL1        0.0146
     14 C         140.5893  136.5033  154.3582 C.ar    1  UNL1        0.0502
     15 N         141.8010  136.2592  155.2080 N.am    1  UNL1       -0.2530
     16 C         142.1591  136.8788  156.5263 C.2     1  UNL1        0.2520
     17 O         143.4536  136.4211  157.1303 O.2     1  UNL1       -0.2724
     18 C         142.7847  135.2639  154.6680 C.3     1  UNL1        0.1263
     19 C         142.7886  133.8562  155.1862 C.ar    1  UNL1        0.0172
     20 C         141.6031  132.9676  154.9517 C.ar    1  UNL1        0.0005
     21 C         141.6069  131.5599  155.4698 C.ar    1  UNL1        0.0204
     22 C         142.7961  131.0409  156.2224 C.ar    1  UNL1        0.0989
     23 N         143.9816  131.9296  156.4569 N.ar    1  UNL1       -0.2426
     24 C         143.9778  133.3373  155.9388 C.ar    1  UNL1        0.0962
     25 C         141.8583  140.6276  164.4745 C.ar    1  UNL1        0.1547
     26 C         142.1102  140.4296  163.0092 C.ar    1  UNL1        0.0400
     27 C         142.0944  139.0479  162.4255 C.ar    1  UNL1        0.0241
     28 C         141.8268  137.8643  163.3072 C.ar    1  UNL1        0.0033
     29 C         141.5749  138.0623  164.7726 C.ar    1  UNL1        0.0207
     30 C         141.5907  139.4440  165.3562 C.ar    1  UNL1        0.0994
     31 N         141.3388  139.6420  166.8217 N.ar    1  UNL1       -0.2839
     32 C         142.3548  139.5080  167.9170 C.ar    1  UNL1        0.1826
     33 N         141.6705  139.7919  169.2212 N.ar    1  UNL1       -0.2280
     34 C         140.2316  140.1015  168.9320 C.ar    1  UNL1        0.0786
     35 C         139.1820  140.4436  169.9475 C.3     1  UNL1        0.0538
     36 C         140.0265  140.0088  167.4490 C.ar    1  UNL1        0.0963
     37 C         143.1207  142.5362  165.7047 C.3     1  UNL1        0.2525
     38 O         141.8740  142.0093  165.0582 O.3     1  UNL1       -0.4700
@<TRIPOS>BOND
     1    37    38    1
     2    38    25    1
     3    25    26   ar
     4    26    27   ar
     5    27     1    1
     6     1     2   ar
     7     2     3   ar
     8     3     6    1
     9     6     7    1
    10     7     8    1
    11     8     9    1
    12     9    10   ar
    13    10    11   ar
    14    11    12   ar
    15    12    13   ar
    16    13    14   ar
    17    14    15    1
    18    15    18    1
    19    18    19    1
    20    19    20   ar
    21    20    21   ar
    22    21    22   ar
    23    22    23   ar
    24    23    24   ar
    25    15    16   am
    26    16    17    2
    27     3     4   ar
    28     4     5   ar
    29    27    28   ar
    30    28    29   ar
    31    29    30   ar
    32    30    31    1
    33    31    32   ar
    34    32    33   ar
    35    33    34   ar
    36    34    35    1
    37    34    36   ar
    38    30    25   ar
    39    36    31   ar
    40     5     1   ar
    41    16     6    1
    42    14     9   ar
    43    24    19   ar
