@<TRIPOS>MOLECULE
*****
 36 39 0 0 0
SMALL
GASTEIGER

@<TRIPOS>ATOM
      1 N         142.4261  141.1385  159.7574 N.3     1  UNL1       -0.2673
      2 C         141.0151  141.5862  159.5156 C.3     1  UNL1        0.1035
      3 C         140.3750  142.5800  160.4388 C.3     1  UNL1        0.1470
      4 C         139.7347  143.5740  161.3620 C.3     1  UNL1        0.1035
      5 N         140.5056  144.1201  162.5271 N.3     1  UNL1       -0.2682
      6 C         141.9167  143.6724  162.7690 C.3     1  UNL1        0.1035
      7 C         142.5569  142.6785  161.8457 C.3     1  UNL1        0.1470
      8 C         143.1970  141.6846  160.9225 C.3     1  UNL1        0.1035
      9 O         141.1458  143.1262  161.6039 O.3     1  UNL1       -0.3530
     10 C         143.0663  140.1445  158.8342 C.3     1  UNL1        0.0913
     11 C         142.4879  138.7674  158.6971 C.3     1  UNL1        0.1087
     12 N         142.8956  137.6842  159.6515 N.3     1  UNL1       -0.1780
     13 H         142.2651  136.8985  159.4919 H       1  UNL1        0.1488
     14 S         142.8953  137.9467  161.1283 S.O2    1  UNL1        0.0603
     15 O         144.3883  137.8046  161.1539 O.2     1  UNL1       -0.1530
     16 O         141.4023  138.0888  161.1027 O.2     1  UNL1       -0.1530
     17 C         142.8942  138.7340  165.5589 C.ar    1  UNL1        0.0685
     18 C         141.7698  137.9625  164.9340 C.ar    1  UNL1        0.0116
     19 C         141.7701  137.7001  163.4571 C.ar    1  UNL1        0.0206
     20 C         142.8949  138.2091  162.6051 C.ar    1  UNL1        0.1220
     21 C         144.0194  138.9805  163.2301 C.ar    1  UNL1        0.0206
     22 C         144.0190  139.2429  164.7069 C.ar    1  UNL1        0.0116
     23 N         142.8935  139.2588  168.5126 N.1     1  UNL1       -0.1908
     24 C         142.8939  138.9964  167.0357 C.1     1  UNL1        0.1004
     25 C         139.8655  145.1140  163.4503 C.3     1  UNL1        0.0769
     26 C         139.2868  144.6591  164.7574 C.3     1  UNL1        0.0437
     27 C         139.0614  143.1978  165.0098 C.ar    1  UNL1       -0.0208
     28 C         139.9839  142.4431  165.9205 C.ar    1  UNL1       -0.0043
     29 C         139.7585  140.9817  166.1729 C.ar    1  UNL1        0.0035
     30 C         138.6108  140.2751  165.5146 C.ar    1  UNL1        0.0714
     31 C         137.6883  141.0299  164.6038 C.ar    1  UNL1        0.0035
     32 C         137.9137  142.4912  164.3514 C.ar    1  UNL1       -0.0043
     33 C         138.3854  138.8138  165.7670 C.3     1  UNL1        0.4186
     34 F         138.1601  137.3525  166.0194 F       1  UNL1       -0.1659
     35 F         138.2333  139.0905  167.2334 F       1  UNL1       -0.1659
     36 F         138.5375  138.5371  164.3006 F       1  UNL1       -0.1659
@<TRIPOS>BOND
     1    23    24    3
     2    24    17    1
     3    17    18   ar
     4    18    19   ar
     5    19    20   ar
     6    20    14    1
     7    14    15    2
     8    14    16    2
     9    14    12    1
    10    12    11    1
    11    11    10    1
    12    10     1    1
    13     1     2    1
    14     2     3    1
    15     3     4    1
    16     4     5    1
    17     5    25    1
    18    25    26    1
    19    26    27    1
    20    27    28   ar
    21    28    29   ar
    22    29    30   ar
    23    30    33    1
    24    33    34    1
    25    33    35    1
    26    33    36    1
    27    30    31   ar
    28    31    32   ar
    29     5     6    1
    30     6     7    1
    31     7     8    1
    32     7     9    1
    33    20    21   ar
    34    21    22   ar
    35    22    17   ar
    36     8     1    1
    37     9     3    1
    38    32    27   ar
    39    12    13    1
@<TRIPOS>MOLECULE
*****
 36 39 0 0 0
SMALL
GASTEIGER

@<TRIPOS>ATOM
      1 N         141.9376  139.3314  159.7183 N.3     1  UNL1       -0.2673
      2 C         142.2820  138.6017  160.9828 C.3     1  UNL1        0.1035
      3 C         143.2073  139.2295  161.9826 C.3     1  UNL1        0.1470
      4 C         144.1327  139.8572  162.9825 C.3     1  UNL1        0.1035
      5 N         144.7138  141.2145  162.7178 N.3     1  UNL1       -0.2682
      6 C         144.3694  141.9441  161.4532 C.3     1  UNL1        0.1035
      7 C         143.4440  141.3164  160.4534 C.3     1  UNL1        0.1470
      8 C         142.5187  140.6887  159.4536 C.3     1  UNL1        0.1035
      9 O         143.7884  140.5868  161.7179 O.3     1  UNL1       -0.3530
     10 C         141.0122  138.7037  158.7184 C.3     1  UNL1        0.0913
     11 C         139.5943  138.3959  159.0988 C.3     1  UNL1        0.1087
     12 N         138.7758  139.4173  159.8315 N.3     1  UNL1       -0.1780
     13 H         139.1083  140.3330  159.5294 H       1  UNL1        0.1488
     14 S         138.7647  139.4339  161.3314 S.O2    1  UNL1        0.0603
     15 O         138.2571  138.0225  161.3433 O.2     1  UNL1       -0.1530
     16 O         139.2723  140.8453  161.3195 O.2     1  UNL1       -0.1530
     17 C         138.7316  139.4836  165.8310 C.ar    1  UNL1        0.0685
     18 C         138.2143  140.6644  165.0641 C.ar    1  UNL1        0.0116
     19 C         138.2253  140.6478  163.5641 C.ar    1  UNL1        0.0206
     20 C         138.7537  139.4505  162.8312 C.ar    1  UNL1        0.1220
     21 C         139.2711  138.2697  163.5982 C.ar    1  UNL1        0.0206
     22 C         139.2600  138.2863  165.0980 C.ar    1  UNL1        0.0116
     23 N         138.7095  139.5169  168.8307 N.1     1  UNL1       -0.1908
     24 C         138.7206  139.5002  167.3308 C.1     1  UNL1        0.1004
     25 C         145.6391  141.8422  163.7176 C.3     1  UNL1        0.0769
     26 C         145.1094  142.8341  164.7104 C.3     1  UNL1        0.0437
     27 C         143.6487  143.1750  164.7236 C.ar    1  UNL1       -0.0208
     28 C         142.6841  142.3125  165.4824 C.ar    1  UNL1       -0.0043
     29 C         141.2234  142.6534  165.4956 C.ar    1  UNL1        0.0035
     30 C         140.7273  143.8567  164.7501 C.ar    1  UNL1        0.0714
     31 C         141.6919  144.7192  163.9913 C.ar    1  UNL1        0.0035
     32 C         143.1526  144.3783  163.9781 C.ar    1  UNL1       -0.0043
     33 C         139.2666  144.1976  164.7633 C.3     1  UNL1        0.4186
     34 F         137.8060  144.5385  164.7765 F       1  UNL1       -0.1659
     35 F         139.2841  144.2145  166.2631 F       1  UNL1       -0.1659
     36 F         139.2491  144.1808  163.2635 F       1  UNL1       -0.1659
@<TRIPOS>BOND
     1    23    24    3
     2    24    17    1
     3    17    18   ar
     4    18    19   ar
     5    19    20   ar
     6    20    14    1
     7    14    15    2
     8    14    16    2
     9    14    12    1
    10    12    11    1
    11    11    10    1
    12    10     1    1
    13     1     2    1
    14     2     3    1
    15     3     4    1
    16     4     5    1
    17     5    25    1
    18    25    26    1
    19    26    27    1
    20    27    28   ar
    21    28    29   ar
    22    29    30   ar
    23    30    33    1
    24    33    34    1
    25    33    35    1
    26    33    36    1
    27    30    31   ar
    28    31    32   ar
    29     5     6    1
    30     6     7    1
    31     7     8    1
    32     7     9    1
    33    20    21   ar
    34    21    22   ar
    35    22    17   ar
    36     8     1    1
    37     9     3    1
    38    32    27   ar
    39    12    13    1
@<TRIPOS>MOLECULE
*****
 36 39 0 0 0
SMALL
GASTEIGER

@<TRIPOS>ATOM
      1 N         142.0954  144.5716  160.9515 N.3     1  UNL1       -0.2673
      2 C         142.2579  144.7515  162.4318 C.3     1  UNL1        0.1035
      3 C         143.1894  143.8596  163.1978 C.3     1  UNL1        0.1470
      4 C         144.1209  142.9677  163.9640 C.3     1  UNL1        0.1035
      5 N         144.8898  141.8959  163.2499 N.3     1  UNL1       -0.2682
      6 C         144.7272  141.7160  161.7695 C.3     1  UNL1        0.1035
      7 C         143.7958  142.6079  161.0035 C.3     1  UNL1        0.1470
      8 C         142.8643  143.4998  160.2374 C.3     1  UNL1        0.1035
      9 O         143.9583  142.7878  162.4837 O.3     1  UNL1       -0.3530
     10 C         141.1639  145.4635  160.1854 C.3     1  UNL1        0.0913
     11 C         139.6800  145.2897  160.3188 C.3     1  UNL1        0.1087
     12 N         139.0261  145.4310  161.6614 N.3     1  UNL1       -0.1780
     13 H         139.5867  146.0967  162.1934 H       1  UNL1        0.1488
     14 S         138.8396  144.2262  162.5353 S.O2    1  UNL1        0.0603
     15 O         139.1618  145.0533  163.7444 O.2     1  UNL1       -0.1530
     16 O         138.5174  143.3991  161.3261 O.2     1  UNL1       -0.1530
     17 C         138.2800  140.6118  165.1569 C.ar    1  UNL1        0.0685
     18 C         139.1762  141.7293  165.6016 C.ar    1  UNL1        0.0116
     19 C         139.3628  142.9342  164.7277 C.ar    1  UNL1        0.0206
     20 C         138.6530  143.0214  163.4091 C.ar    1  UNL1        0.1220
     21 C         137.7567  141.9038  162.9644 C.ar    1  UNL1        0.0206
     22 C         137.5702  140.6991  163.8383 C.ar    1  UNL1        0.0116
     23 N         137.9069  138.2022  166.9046 N.1     1  UNL1       -0.1908
     24 C         138.0934  139.4070  166.0307 C.1     1  UNL1        0.1004
     25 C         145.8212  141.0041  164.0160 C.3     1  UNL1        0.0769
     26 C         145.3837  139.6246  164.4105 C.3     1  UNL1        0.0437
     27 C         143.9921  139.1607  164.0969 C.ar    1  UNL1       -0.0208
     28 C         142.9089  139.2892  165.1265 C.ar    1  UNL1       -0.0043
     29 C         141.5173  138.8253  164.8130 C.ar    1  UNL1        0.0035
     30 C         141.2089  138.2330  163.4698 C.ar    1  UNL1        0.0714
     31 C         142.2922  138.1046  162.4402 C.ar    1  UNL1        0.0035
     32 C         143.6837  138.5684  162.7538 C.ar    1  UNL1       -0.0043
     33 C         139.8173  137.7692  163.1563 C.3     1  UNL1        0.4186
     34 F         138.4258  137.3054  162.8427 F       1  UNL1       -0.1659
     35 F         139.9229  138.3768  161.7889 F       1  UNL1       -0.1659
     36 F         139.7118  137.1616  164.5236 F       1  UNL1       -0.1659
@<TRIPOS>BOND
     1    23    24    3
     2    24    17    1
     3    17    18   ar
     4    18    19   ar
     5    19    20   ar
     6    20    14    1
     7    14    15    2
     8    14    16    2
     9    14    12    1
    10    12    11    1
    11    11    10    1
    12    10     1    1
    13     1     2    1
    14     2     3    1
    15     3     4    1
    16     4     5    1
    17     5    25    1
    18    25    26    1
    19    26    27    1
    20    27    28   ar
    21    28    29   ar
    22    29    30   ar
    23    30    33    1
    24    33    34    1
    25    33    35    1
    26    33    36    1
    27    30    31   ar
    28    31    32   ar
    29     5     6    1
    30     6     7    1
    31     7     8    1
    32     7     9    1
    33    20    21   ar
    34    21    22   ar
    35    22    17   ar
    36     8     1    1
    37     9     3    1
    38    32    27   ar
    39    12    13    1
@<TRIPOS>MOLECULE
*****
 36 39 0 0 0
SMALL
GASTEIGER

@<TRIPOS>ATOM
      1 N         140.4136  139.8424  159.1421 N.3     1  UNL1       -0.2673
      2 C         140.5716  141.3236  158.9662 C.3     1  UNL1        0.1035
      3 C         139.8873  142.2681  159.9094 C.3     1  UNL1        0.1470
      4 C         139.2029  143.2126  160.8526 C.3     1  UNL1        0.1035
      5 N         138.3606  142.6759  161.9716 N.3     1  UNL1       -0.2682
      6 C         138.2025  141.1946  162.1475 C.3     1  UNL1        0.1035
      7 C         138.8869  140.2501  161.2043 C.3     1  UNL1        0.1470
      8 C         139.5712  139.3056  160.2611 C.3     1  UNL1        0.1035
      9 O         139.0449  141.7313  161.0284 O.3     1  UNL1       -0.3530
     10 C         141.0979  138.8978  158.1989 C.3     1  UNL1        0.0913
     11 C         142.2646  138.0814  158.6702 C.3     1  UNL1        0.1087
     12 N         143.3715  138.7327  159.4453 N.3     1  UNL1       -0.1780
     13 H         144.2333  138.2510  159.1893 H       1  UNL1        0.1488
     14 S         143.3209  138.7623  160.9441 S.O2    1  UNL1        0.0603
     15 O         142.5987  137.4477  160.9457 O.2     1  UNL1       -0.1530
     16 O         144.0431  140.0770  160.9425 O.2     1  UNL1       -0.1530
     17 C         143.1690  138.8512  165.4407 C.ar    1  UNL1        0.0685
     18 C         144.3261  139.4734  164.7169 C.ar    1  UNL1        0.0116
     19 C         144.3768  139.4438  163.2180 C.ar    1  UNL1        0.0206
     20 C         143.2703  138.7920  162.4429 C.ar    1  UNL1        0.1220
     21 C         142.1131  138.1697  163.1668 C.ar    1  UNL1        0.0206
     22 C         142.0625  138.1993  164.6656 C.ar    1  UNL1        0.0116
     23 N         143.0677  138.9103  168.4384 N.1     1  UNL1       -0.1908
     24 C         143.1184  138.8808  166.9395 C.1     1  UNL1        0.1004
     25 C         137.6762  143.6203  162.9148 C.3     1  UNL1        0.0769
     26 C         138.3484  144.0203  164.1948 C.3     1  UNL1        0.0437
     27 C         139.8178  143.7805  164.3771 C.ar    1  UNL1       -0.0208
     28 C         140.2949  142.5354  165.0642 C.ar    1  UNL1       -0.0043
     29 C         141.7644  142.2955  165.2464 C.ar    1  UNL1        0.0035
     30 C         142.7567  143.3007  164.7416 C.ar    1  UNL1        0.0714
     31 C         142.2795  144.5458  164.0544 C.ar    1  UNL1        0.0035
     32 C         140.8101  144.7857  163.8722 C.ar    1  UNL1       -0.0043
     33 C         144.2261  143.0609  164.9238 C.3     1  UNL1        0.4186
     34 F         145.6955  142.8211  165.1061 F       1  UNL1       -0.1659
     35 F         144.0540  143.1369  166.4119 F       1  UNL1       -0.1659
     36 F         144.3983  142.9849  163.4357 F       1  UNL1       -0.1659
@<TRIPOS>BOND
     1    23    24    3
     2    24    17    1
     3    17    18   ar
     4    18    19   ar
     5    19    20   ar
     6    20    14    1
     7    14    15    2
     8    14    16    2
     9    14    12    1
    10    12    11    1
    11    11    10    1
    12    10     1    1
    13     1     2    1
    14     2     3    1
    15     3     4    1
    16     4     5    1
    17     5    25    1
    18    25    26    1
    19    26    27    1
    20    27    28   ar
    21    28    29   ar
    22    29    30   ar
    23    30    33    1
    24    33    34    1
    25    33    35    1
    26    33    36    1
    27    30    31   ar
    28    31    32   ar
    29     5     6    1
    30     6     7    1
    31     7     8    1
    32     7     9    1
    33    20    21   ar
    34    21    22   ar
    35    22    17   ar
    36     8     1    1
    37     9     3    1
    38    32    27   ar
    39    12    13    1
@<TRIPOS>MOLECULE
*****
 36 39 0 0 0
SMALL
GASTEIGER

@<TRIPOS>ATOM
      1 N         139.7313  142.4498  159.6607 N.3     1  UNL1       -0.2673
      2 C         139.1897  143.2477  160.8096 C.3     1  UNL1        0.1035
      3 C         140.1303  143.9190  161.7660 C.3     1  UNL1        0.1470
      4 C         141.0708  144.5903  162.7224 C.3     1  UNL1        0.1035
      5 N         142.5530  144.4637  162.5299 N.3     1  UNL1       -0.2682
      6 C         143.0947  143.6657  161.3810 C.3     1  UNL1        0.1035
      7 C         142.1541  142.9945  160.4246 C.3     1  UNL1        0.1470
      8 C         141.2135  142.3232  159.4682 C.3     1  UNL1        0.1035
      9 O         141.6125  143.7924  161.5735 O.3     1  UNL1       -0.3530
     10 C         138.7907  141.7785  158.7043 C.3     1  UNL1        0.0913
     11 C         138.0989  140.5079  159.1002 C.3     1  UNL1        0.1087
     12 N         138.8446  139.4549  159.8652 N.3     1  UNL1       -0.1780
     13 H         138.4627  138.5545  159.5755 H       1  UNL1        0.1488
     14 S         138.8327  139.4677  161.3651 S.O2    1  UNL1        0.0603
     15 O         140.3316  139.4118  161.3774 O.2     1  UNL1       -0.1530
     16 O         137.3339  139.5237  161.3528 O.2     1  UNL1       -0.1530
     17 C         138.7971  139.5064  165.8648 C.ar    1  UNL1        0.0685
     18 C         139.1054  138.2367  165.1281 C.ar    1  UNL1        0.0116
     19 C         139.1173  138.2238  163.6282 C.ar    1  UNL1        0.0206
     20 C         138.8209  139.4806  162.8650 C.ar    1  UNL1        0.1220
     21 C         138.5126  140.7504  163.6017 C.ar    1  UNL1        0.0206
     22 C         138.5007  140.7633  165.1016 C.ar    1  UNL1        0.0116
     23 N         138.7734  139.5322  168.8646 N.1     1  UNL1       -0.1908
     24 C         138.7853  139.5193  167.3646 C.1     1  UNL1        0.1004
     25 C         143.4936  145.1350  163.4863 C.3     1  UNL1        0.0769
     26 C         144.1177  144.3486  164.6008 C.3     1  UNL1        0.0437
     27 C         143.7614  142.9039  164.7904 C.ar    1  UNL1       -0.0208
     28 C         144.6488  141.8328  164.2290 C.ar    1  UNL1       -0.0043
     29 C         144.2926  140.3880  164.4185 C.ar    1  UNL1        0.0035
     30 C         143.0490  140.0145  165.1694 C.ar    1  UNL1        0.0714
     31 C         142.1616  141.0857  165.7308 C.ar    1  UNL1        0.0035
     32 C         142.5178  142.5303  165.5413 C.ar    1  UNL1       -0.0043
     33 C         142.6927  138.5698  165.3590 C.3     1  UNL1        0.4186
     34 F         142.3365  137.1251  165.5485 F       1  UNL1       -0.1659
     35 F         143.1672  138.2703  163.9679 F       1  UNL1       -0.1659
     36 F         142.2182  138.8693  166.7500 F       1  UNL1       -0.1659
@<TRIPOS>BOND
     1    23    24    3
     2    24    17    1
     3    17    18   ar
     4    18    19   ar
     5    19    20   ar
     6    20    14    1
     7    14    15    2
     8    14    16    2
     9    14    12    1
    10    12    11    1
    11    11    10    1
    12    10     1    1
    13     1     2    1
    14     2     3    1
    15     3     4    1
    16     4     5    1
    17     5    25    1
    18    25    26    1
    19    26    27    1
    20    27    28   ar
    21    28    29   ar
    22    29    30   ar
    23    30    33    1
    24    33    34    1
    25    33    35    1
    26    33    36    1
    27    30    31   ar
    28    31    32   ar
    29     5     6    1
    30     6     7    1
    31     7     8    1
    32     7     9    1
    33    20    21   ar
    34    21    22   ar
    35    22    17   ar
    36     8     1    1
    37     9     3    1
    38    32    27   ar
    39    12    13    1
@<TRIPOS>MOLECULE
*****
 36 39 0 0 0
SMALL
GASTEIGER

@<TRIPOS>ATOM
      1 N         140.8876  143.6257  159.5409 N.3     1  UNL1       -0.2673
      2 C         140.0803  142.3625  159.4901 C.3     1  UNL1        0.1035
      3 C         140.6812  141.0692  159.9551 C.3     1  UNL1        0.1470
      4 C         141.2821  139.7759  160.4202 C.3     1  UNL1        0.1035
      5 N         142.6903  139.7458  160.9359 N.3     1  UNL1       -0.2682
      6 C         143.4976  141.0090  160.9867 C.3     1  UNL1        0.1035
      7 C         142.8967  142.3023  160.5217 C.3     1  UNL1        0.1470
      8 C         142.2958  143.5956  160.0567 C.3     1  UNL1        0.1035
      9 O         142.0894  141.0391  160.4709 O.3     1  UNL1       -0.3530
     10 C         140.2867  144.9191  159.0759 C.3     1  UNL1        0.0913
     11 C         140.2480  146.1022  159.9971 C.3     1  UNL1        0.1087
     12 N         139.2421  146.1546  161.1087 N.3     1  UNL1       -0.1780
     13 H         139.1219  147.1381  161.3509 H       1  UNL1        0.1488
     14 S         139.5026  145.4216  162.3911 S.O2    1  UNL1        0.0603
     15 O         138.0727  144.9695  162.4232 O.2     1  UNL1       -0.1530
     16 O         140.9324  145.8736  162.3591 O.2     1  UNL1       -0.1530
     17 C         140.2841  143.2225  166.2386 C.ar    1  UNL1        0.0685
     18 C         141.2786  143.1501  165.1181 C.ar    1  UNL1        0.0116
     19 C         141.0181  143.8831  163.8355 C.ar    1  UNL1        0.0206
     20 C         139.7631  144.6885  163.6736 C.ar    1  UNL1        0.1220
     21 C         138.7685  144.7609  164.7942 C.ar    1  UNL1        0.0206
     22 C         139.0290  144.0279  166.0767 C.ar    1  UNL1        0.0116
     23 N         140.8051  141.7564  168.8036 N.1     1  UNL1       -0.1908
     24 C         140.5446  142.4894  167.5211 C.1     1  UNL1        0.1004
     25 C         143.2912  138.4525  161.4009 C.3     1  UNL1        0.0769
     26 C         143.3574  138.1403  162.8667 C.3     1  UNL1        0.0437
     27 C         142.1208  138.2357  163.7103 C.ar    1  UNL1       -0.0208
     28 C         141.0603  137.1798  163.6086 C.ar    1  UNL1       -0.0043
     29 C         139.8236  137.2752  164.4523 C.ar    1  UNL1        0.0035
     30 C         139.6476  138.4264  165.3977 C.ar    1  UNL1        0.0714
     31 C         140.7083  139.4822  165.4994 C.ar    1  UNL1        0.0035
     32 C         141.9448  139.3869  164.6557 C.ar    1  UNL1       -0.0043
     33 C         138.4111  138.5217  166.2413 C.3     1  UNL1        0.4186
     34 F         137.1745  138.6171  167.0850 F       1  UNL1       -0.1659
     35 F         138.1299  137.0694  165.9933 F       1  UNL1       -0.1659
     36 F         138.6923  139.9741  166.4893 F       1  UNL1       -0.1659
@<TRIPOS>BOND
     1    23    24    3
     2    24    17    1
     3    17    18   ar
     4    18    19   ar
     5    19    20   ar
     6    20    14    1
     7    14    15    2
     8    14    16    2
     9    14    12    1
    10    12    11    1
    11    11    10    1
    12    10     1    1
    13     1     2    1
    14     2     3    1
    15     3     4    1
    16     4     5    1
    17     5    25    1
    18    25    26    1
    19    26    27    1
    20    27    28   ar
    21    28    29   ar
    22    29    30   ar
    23    30    33    1
    24    33    34    1
    25    33    35    1
    26    33    36    1
    27    30    31   ar
    28    31    32   ar
    29     5     6    1
    30     6     7    1
    31     7     8    1
    32     7     9    1
    33    20    21   ar
    34    21    22   ar
    35    22    17   ar
    36     8     1    1
    37     9     3    1
    38    32    27   ar
    39    12    13    1
@<TRIPOS>MOLECULE
*****
 36 39 0 0 0
SMALL
GASTEIGER

@<TRIPOS>ATOM
      1 N         140.7689  139.8662  159.5963 N.3     1  UNL1       -0.2673
      2 C         139.9231  138.7234  160.0742 C.3     1  UNL1        0.1035
      3 C         139.2392  138.8025  161.4068 C.3     1  UNL1        0.1470
      4 C         138.5552  138.8816  162.7395 C.3     1  UNL1        0.1035
      5 N         138.7172  140.1036  163.5943 N.3     1  UNL1       -0.2682
      6 C         139.5631  141.2464  163.1163 C.3     1  UNL1        0.1035
      7 C         140.2470  141.1673  161.7837 C.3     1  UNL1        0.1470
      8 C         140.9308  141.0882  160.4510 C.3     1  UNL1        0.1035
      9 O         139.4011  140.0245  162.2616 O.3     1  UNL1       -0.3530
     10 C         141.4529  139.7871  158.2636 C.3     1  UNL1        0.0913
     11 C         142.9509  139.7913  158.1880 C.3     1  UNL1        0.1087
     12 N         143.7466  138.8303  159.0207 N.3     1  UNL1       -0.1780
     13 H         143.4810  137.8919  158.7219 H       1  UNL1        0.1488
     14 S         143.6294  138.8581  160.5158 S.O2    1  UNL1        0.0603
     15 O         143.0695  137.4666  160.4978 O.2     1  UNL1       -0.1530
     16 O         144.1892  140.2495  160.5339 O.2     1  UNL1       -0.1530
     17 C         143.2776  138.9415  165.0013 C.ar    1  UNL1        0.0685
     18 C         142.2696  138.1894  164.1838 C.ar    1  UNL1        0.0116
     19 C         142.3869  138.1616  162.6886 C.ar    1  UNL1        0.0206
     20 C         143.5121  138.8859  162.0110 C.ar    1  UNL1        0.1220
     21 C         144.5201  139.6380  162.8285 C.ar    1  UNL1        0.0206
     22 C         144.4028  139.6658  164.3236 C.ar    1  UNL1        0.0116
     23 N         143.0430  138.9971  167.9916 N.1     1  UNL1       -0.1908
     24 C         143.1603  138.9694  166.4964 C.1     1  UNL1        0.1004
     25 C         138.0333  140.1827  164.9269 C.3     1  UNL1        0.0769
     26 C         138.6670  139.5561  166.1335 C.3     1  UNL1        0.0437
     27 C         139.5261  140.3826  167.0439 C.ar    1  UNL1       -0.0208
     28 C         140.4524  141.4132  166.4697 C.ar    1  UNL1       -0.0043
     29 C         141.3116  142.2398  167.3801 C.ar    1  UNL1        0.0035
     30 C         141.2443  142.0357  168.8646 C.ar    1  UNL1        0.0714
     31 C         140.3179  141.0051  169.4388 C.ar    1  UNL1        0.0035
     32 C         139.4588  140.1786  168.5284 C.ar    1  UNL1       -0.0043
     33 C         142.1034  142.8622  169.7750 C.3     1  UNL1        0.4186
     34 F         142.9625  143.6887  170.6853 F       1  UNL1       -0.1659
     35 F         143.1967  141.8405  169.6709 F       1  UNL1       -0.1659
     36 F         141.0102  143.8839  169.8790 F       1  UNL1       -0.1659
@<TRIPOS>BOND
     1    23    24    3
     2    24    17    1
     3    17    18   ar
     4    18    19   ar
     5    19    20   ar
     6    20    14    1
     7    14    15    2
     8    14    16    2
     9    14    12    1
    10    12    11    1
    11    11    10    1
    12    10     1    1
    13     1     2    1
    14     2     3    1
    15     3     4    1
    16     4     5    1
    17     5    25    1
    18    25    26    1
    19    26    27    1
    20    27    28   ar
    21    28    29   ar
    22    29    30   ar
    23    30    33    1
    24    33    34    1
    25    33    35    1
    26    33    36    1
    27    30    31   ar
    28    31    32   ar
    29     5     6    1
    30     6     7    1
    31     7     8    1
    32     7     9    1
    33    20    21   ar
    34    21    22   ar
    35    22    17   ar
    36     8     1    1
    37     9     3    1
    38    32    27   ar
    39    12    13    1
@<TRIPOS>MOLECULE
*****
 36 39 0 0 0
SMALL
GASTEIGER

@<TRIPOS>ATOM
      1 N         140.7750  143.8520  160.0401 N.3     1  UNL1       -0.2673
      2 C         139.8327  142.6850  160.0455 C.3     1  UNL1        0.1035
      3 C         140.3681  141.2883  159.9349 C.3     1  UNL1        0.1470
      4 C         140.9036  139.8914  159.8243 C.3     1  UNL1        0.1035
      5 N         142.3813  139.6616  159.7082 N.3     1  UNL1       -0.2682
      6 C         143.3236  140.8288  159.7029 C.3     1  UNL1        0.1035
      7 C         142.7882  142.2255  159.8135 C.3     1  UNL1        0.1470
      8 C         142.2528  143.6223  159.9241 C.3     1  UNL1        0.1035
      9 O         141.8459  141.0585  159.8189 O.3     1  UNL1       -0.3530
     10 C         140.2396  145.2489  160.1508 C.3     1  UNL1        0.0913
     11 C         140.3653  146.0002  161.4429 C.3     1  UNL1        0.1087
     12 N         139.3087  145.8593  162.4983 N.3     1  UNL1       -0.1780
     13 H         139.5389  146.5249  163.2361 H       1  UNL1        0.1488
     14 S         139.0864  144.5340  163.1648 S.O2    1  UNL1        0.0603
     15 O         140.4698  144.5919  163.7415 O.2     1  UNL1       -0.1530
     16 O         137.7029  144.4762  162.5881 O.2     1  UNL1       -0.1530
     17 C         138.4192  140.5582  165.1641 C.ar    1  UNL1        0.0685
     18 C         137.6709  140.9022  163.9105 C.ar    1  UNL1        0.0116
     19 C         137.8932  142.2275  163.2440 C.ar    1  UNL1        0.0206
     20 C         138.8640  143.2088  163.8312 C.ar    1  UNL1        0.1220
     21 C         139.6123  142.8647  165.0849 C.ar    1  UNL1        0.0206
     22 C         139.3900  141.5394  165.7513 C.ar    1  UNL1        0.0116
     23 N         137.9744  137.9076  166.4970 N.1     1  UNL1       -0.1908
     24 C         138.1968  139.2329  165.8305 C.1     1  UNL1        0.1004
     25 C         142.9168  138.2649  159.5976 C.3     1  UNL1        0.0769
     26 C         143.3673  137.5347  160.8281 C.3     1  UNL1        0.0437
     27 C         143.1612  138.1475  162.1815 C.ar    1  UNL1       -0.0208
     28 C         144.2270  139.0156  162.7818 C.ar    1  UNL1       -0.0043
     29 C         144.0210  139.6285  164.1354 C.ar    1  UNL1        0.0035
     30 C         142.7492  139.3733  164.8885 C.ar    1  UNL1        0.0714
     31 C         141.6834  138.5051  164.2881 C.ar    1  UNL1        0.0035
     32 C         141.8894  137.8922  162.9347 C.ar    1  UNL1       -0.0043
     33 C         142.5431  139.9861  166.2420 C.3     1  UNL1        0.4186
     34 F         142.3371  140.5990  167.5954 F       1  UNL1       -0.1659
     35 F         143.5434  141.0537  165.9109 F       1  UNL1       -0.1659
     36 F         141.5429  138.9185  166.5731 F       1  UNL1       -0.1659
@<TRIPOS>BOND
     1    23    24    3
     2    24    17    1
     3    17    18   ar
     4    18    19   ar
     5    19    20   ar
     6    20    14    1
     7    14    15    2
     8    14    16    2
     9    14    12    1
    10    12    11    1
    11    11    10    1
    12    10     1    1
    13     1     2    1
    14     2     3    1
    15     3     4    1
    16     4     5    1
    17     5    25    1
    18    25    26    1
    19    26    27    1
    20    27    28   ar
    21    28    29   ar
    22    29    30   ar
    23    30    33    1
    24    33    34    1
    25    33    35    1
    26    33    36    1
    27    30    31   ar
    28    31    32   ar
    29     5     6    1
    30     6     7    1
    31     7     8    1
    32     7     9    1
    33    20    21   ar
    34    21    22   ar
    35    22    17   ar
    36     8     1    1
    37     9     3    1
    38    32    27   ar
    39    12    13    1
@<TRIPOS>MOLECULE
*****
 36 39 0 0 0
SMALL
GASTEIGER

@<TRIPOS>ATOM
      1 N         141.0713  138.3089  159.5099 N.3     1  UNL1       -0.2673
      2 C         141.9925  137.9673  160.6433 C.3     1  UNL1        0.1035
      3 C         141.4412  137.7689  162.0241 C.3     1  UNL1        0.1470
      4 C         140.8899  137.5705  163.4050 C.3     1  UNL1        0.1035
      5 N         139.4174  137.7137  163.6524 N.3     1  UNL1       -0.2682
      6 C         138.4962  138.0553  162.5189 C.3     1  UNL1        0.1035
      7 C         139.0475  138.2537  161.1381 C.3     1  UNL1        0.1470
      8 C         139.5988  138.4521  159.7573 C.3     1  UNL1        0.1035
      9 O         139.9687  137.9121  162.2715 O.3     1  UNL1       -0.3530
     10 C         141.6226  138.5073  158.1290 C.3     1  UNL1        0.0913
     11 C         142.6355  139.5837  157.8733 C.3     1  UNL1        0.1087
     12 N         142.3442  140.9987  158.2769 N.3     1  UNL1       -0.1780
     13 H         142.7561  141.5993  157.5627 H       1  UNL1        0.1488
     14 S         142.8203  141.5136  159.6029 S.O2    1  UNL1        0.0603
     15 O         141.5795  142.3475  159.7246 O.2     1  UNL1       -0.1530
     16 O         144.0611  140.6796  159.4812 O.2     1  UNL1       -0.1530
     17 C         144.2485  143.0581  163.5809 C.ar    1  UNL1        0.0685
     18 C         144.3991  141.6045  163.2428 C.ar    1  UNL1        0.0116
     19 C         143.9230  141.0896  161.9168 C.ar    1  UNL1        0.0206
     20 C         143.2964  142.0284  160.9289 C.ar    1  UNL1        0.1220
     21 C         143.1458  143.4820  161.2670 C.ar    1  UNL1        0.0206
     22 C         143.6219  143.9969  162.5930 C.ar    1  UNL1        0.0116
     23 N         145.2007  144.0877  166.2329 N.1     1  UNL1       -0.1908
     24 C         144.7246  143.5729  164.9069 C.1     1  UNL1        0.1004
     25 C         138.8661  137.5154  165.0332 C.3     1  UNL1        0.0769
     26 C         138.7461  138.6826  165.9677 C.3     1  UNL1        0.0437
     27 C         139.1055  140.0606  165.4966 C.ar    1  UNL1       -0.0208
     28 C         140.4848  140.5990  165.7362 C.ar    1  UNL1       -0.0043
     29 C         140.8443  141.9771  165.2651 C.ar    1  UNL1        0.0035
     30 C         139.8243  142.8166  164.5545 C.ar    1  UNL1        0.0714
     31 C         138.4449  142.2780  164.3150 C.ar    1  UNL1        0.0035
     32 C         138.0855  140.9001  164.7860 C.ar    1  UNL1       -0.0043
     33 C         140.1837  144.1946  164.0834 C.3     1  UNL1        0.4186
     34 F         140.5431  145.5726  163.6123 F       1  UNL1       -0.1659
     35 F         141.4127  144.1679  164.9430 F       1  UNL1       -0.1659
     36 F         138.9547  144.2212  163.2238 F       1  UNL1       -0.1659
@<TRIPOS>BOND
     1    23    24    3
     2    24    17    1
     3    17    18   ar
     4    18    19   ar
     5    19    20   ar
     6    20    14    1
     7    14    15    2
     8    14    16    2
     9    14    12    1
    10    12    11    1
    11    11    10    1
    12    10     1    1
    13     1     2    1
    14     2     3    1
    15     3     4    1
    16     4     5    1
    17     5    25    1
    18    25    26    1
    19    26    27    1
    20    27    28   ar
    21    28    29   ar
    22    29    30   ar
    23    30    33    1
    24    33    34    1
    25    33    35    1
    26    33    36    1
    27    30    31   ar
    28    31    32   ar
    29     5     6    1
    30     6     7    1
    31     7     8    1
    32     7     9    1
    33    20    21   ar
    34    21    22   ar
    35    22    17   ar
    36     8     1    1
    37     9     3    1
    38    32    27   ar
    39    12    13    1
