@<TRIPOS>MOLECULE
*****
 42 46 0 0 0
SMALL
GASTEIGER

@<TRIPOS>ATOM
      1 C         141.2650  142.8018  157.2216 C.ar    1  UNL1        0.1383
      2 C         141.8953  143.6346  156.1450 C.ar    1  UNL1        0.0369
      3 C         142.1585  145.0922  156.3818 C.ar    1  UNL1        0.0028
      4 C         141.7914  145.7170  157.6951 C.ar    1  UNL1       -0.0041
      5 C         141.1612  144.8841  158.7717 C.ar    1  UNL1       -0.0186
      6 C         140.8980  143.4265  158.5350 C.ar    1  UNL1        0.0326
      7 O         141.0018  141.3441  156.9849 O.3     1  UNL1       -0.4751
      8 C         139.6013  140.8126  157.0629 C.3     1  UNL1        0.2118
      9 C         139.3469  139.4506  157.6376 C.3     1  UNL1        0.0960
     10 C         139.7564  138.8657  161.4527 C.ar    1  UNL1        0.2289
     11 N         138.9340  139.2943  160.2739 N.ar    1  UNL1       -0.2129
     12 C         139.7737  139.1371  159.0409 C.ar    1  UNL1        0.0960
     13 C         141.1152  138.6112  159.4579 C.ar    1  UNL1        0.1387
     14 C         142.2655  138.3065  158.5446 C.3     1  UNL1        0.0738
     15 O         141.1045  138.4435  160.9484 O.2     1  UNL1       -0.4392
     16 C         138.4151  138.8493  165.7482 C.ar    1  UNL1        0.1387
     17 C         138.2110  140.0718  164.9034 C.ar    1  UNL1        0.0371
     18 C         138.6581  140.0773  163.4716 C.ar    1  UNL1        0.0078
     19 C         139.3093  138.8602  162.8845 C.ar    1  UNL1        0.0537
     20 C         139.5134  137.6377  163.7293 C.ar    1  UNL1        0.0078
     21 C         139.0663  137.6322  165.1611 C.ar    1  UNL1        0.0371
     22 C         136.9566  137.8389  167.6460 C.3     1  UNL1        0.2525
     23 O         137.9680  138.8438  167.1800 O.3     1  UNL1       -0.4714
     24 C         140.7941  145.5089  160.0851 C.3     1  UNL1        0.0376
     25 C         140.8821  144.7051  161.3485 C.3     1  UNL1        0.1052
     26 C         141.9776  144.3651  162.3152 C.2     1  UNL1        0.2315
     27 O         143.4387  144.6880  162.4188 O.2     1  UNL1       -0.2745
     28 N         141.0066  143.5685  163.1354 N.am    1  UNL1       -0.2546
     29 C         139.9112  143.9085  162.1687 C.3     1  UNL1        0.1249
     30 C         141.0946  142.7647  164.3988 C.ar    1  UNL1        0.0541
     31 C         141.8078  141.4451  164.4001 C.ar    1  UNL1        0.0146
     32 C         141.8958  140.6414  165.6635 C.ar    1  UNL1       -0.0030
     33 C         141.2707  141.1573  166.9256 C.ar    1  UNL1       -0.0227
     34 C         140.5576  142.4769  166.9243 C.ar    1  UNL1       -0.0030
     35 C         140.4695  143.2806  165.6609 C.ar    1  UNL1        0.0146
     36 C         141.3587  140.3536  168.1890 C.3     1  UNL1        0.0189
     37 C         142.5780  139.6573  167.6612 C.3     1  UNL1        0.0044
     38 C         140.1395  141.0499  168.7169 C.3     1  UNL1        0.0044
     39 C         141.4468  139.5498  169.4526 C.3     1  UNL1        0.0044
     40 C         138.4500  143.5856  162.0651 C.2     1  UNL1        0.0692
     41 O         137.4896  144.1202  163.0858 O.co2   1  UNL1       -0.5475
     42 O         137.9492  142.7282  160.9408 O.co2   1  UNL1       -0.5475
@<TRIPOS>UNITY_ATOM_ATTR
41 1
charge -1
@<TRIPOS>BOND
     1    22    23    1
     2    23    16    1
     3    16    17   ar
     4    17    18   ar
     5    18    19   ar
     6    19    10    1
     7    10    11   ar
     8    11    12   ar
     9    12     9    1
    10     9     8    1
    11     8     7    1
    12     7     1    1
    13     1     2   ar
    14     2     3   ar
    15     3     4   ar
    16     4     5   ar
    17     5    24    1
    18    25    24    1
    19    25    26    1
    20    26    27    2
    21    26    28   am
    22    28    30    1
    23    30    31   ar
    24    31    32   ar
    25    32    33   ar
    26    33    36    1
    27    36    37    1
    28    36    38    1
    29    36    39    1
    30    33    34   ar
    31    34    35   ar
    32    28    29    1
    33    29    40    1
    34    40    41   ar
    35    40    42   ar
    36     5     6   ar
    37    12    13   ar
    38    13    14    1
    39    13    15   ar
    40    19    20   ar
    41    20    21   ar
    42    21    16   ar
    43    15    10   ar
    44     6     1   ar
    45    29    25    1
    46    35    30   ar
@<TRIPOS>MOLECULE
*****
 42 46 0 0 0
SMALL
GASTEIGER

@<TRIPOS>ATOM
      1 C         139.3998  141.6824  157.9455 C.ar    1  UNL1        0.1383
      2 C         140.2798  140.6039  157.3867 C.ar    1  UNL1        0.0369
      3 C         140.2515  139.2283  157.9842 C.ar    1  UNL1        0.0028
      4 C         139.3434  138.9313  159.1405 C.ar    1  UNL1       -0.0041
      5 C         138.4634  140.0099  159.6993 C.ar    1  UNL1       -0.0186
      6 C         138.4916  141.3854  159.1018 C.ar    1  UNL1        0.0326
      7 O         139.4280  143.0581  157.3480 O.3     1  UNL1       -0.4751
      8 C         140.5160  144.0184  157.7275 C.3     1  UNL1        0.2118
      9 C         140.3222  144.9515  158.8858 C.3     1  UNL1        0.0960
     10 C         141.5606  143.2190  162.1309 C.ar    1  UNL1        0.2289
     11 N         141.4454  143.2724  160.6363 N.ar    1  UNL1       -0.2129
     12 C         140.6716  144.5055  160.2747 C.ar    1  UNL1        0.0960
     13 C         140.3086  145.2143  161.5459 C.ar    1  UNL1        0.1387
     14 C         139.5325  146.4935  161.6514 C.3     1  UNL1        0.0738
     15 O         140.8580  144.4192  162.6931 O.2     1  UNL1       -0.4392
     16 C         143.6475  140.0202  164.5105 C.ar    1  UNL1        0.1387
     17 C         143.9993  141.4628  164.7229 C.ar    1  UNL1        0.0371
     18 C         143.3036  142.5291  163.9297 C.ar    1  UNL1        0.0078
     19 C         142.2562  142.1528  162.9241 C.ar    1  UNL1        0.0537
     20 C         141.9044  140.7102  162.7118 C.ar    1  UNL1        0.0078
     21 C         142.6000  139.6439  163.5050 C.ar    1  UNL1        0.0371
     22 C         143.5696  138.1247  166.2856 C.3     1  UNL1        0.2525
     23 O         144.3431  138.9540  165.3037 O.3     1  UNL1       -0.4714
     24 C         137.5552  139.7129  160.8556 C.3     1  UNL1        0.0376
     25 C         138.0392  139.9161  162.2607 C.3     1  UNL1        0.1052
     26 C         138.6213  139.0288  163.3208 C.2     1  UNL1        0.2315
     27 O         138.9605  137.5707  163.4149 O.2     1  UNL1       -0.2745
     28 N         138.7236  140.2035  164.2480 N.am    1  UNL1       -0.2546
     29 C         138.1415  141.0908  163.1879 C.3     1  UNL1        0.1249
     30 C         139.2075  140.4067  165.6531 C.ar    1  UNL1        0.0541
     31 C         138.6615  139.5597  166.7643 C.ar    1  UNL1        0.0146
     32 C         139.1455  139.7629  168.1694 C.ar    1  UNL1       -0.0030
     33 C         140.1754  140.8131  168.4635 C.ar    1  UNL1       -0.0227
     34 C         140.7213  141.6600  167.3524 C.ar    1  UNL1       -0.0030
     35 C         140.2374  141.4568  165.9472 C.ar    1  UNL1        0.0146
     36 C         140.6593  141.0163  169.8686 C.3     1  UNL1        0.0189
     37 C         141.2916  139.6561  169.8476 C.3     1  UNL1        0.0044
     38 C         140.0271  142.3763  169.8897 C.3     1  UNL1        0.0044
     39 C         141.1433  141.2194  171.2739 C.3     1  UNL1        0.0044
     40 C         137.8022  142.5490  163.0939 C.2     1  UNL1        0.0692
     41 O         137.5755  143.1813  161.7526 O.co2   1  UNL1       -0.5475
     42 O         137.6896  143.3748  164.3410 O.co2   1  UNL1       -0.5475
@<TRIPOS>UNITY_ATOM_ATTR
41 1
charge -1
@<TRIPOS>BOND
     1    22    23    1
     2    23    16    1
     3    16    17   ar
     4    17    18   ar
     5    18    19   ar
     6    19    10    1
     7    10    11   ar
     8    11    12   ar
     9    12     9    1
    10     9     8    1
    11     8     7    1
    12     7     1    1
    13     1     2   ar
    14     2     3   ar
    15     3     4   ar
    16     4     5   ar
    17     5    24    1
    18    25    24    1
    19    25    26    1
    20    26    27    2
    21    26    28   am
    22    28    30    1
    23    30    31   ar
    24    31    32   ar
    25    32    33   ar
    26    33    36    1
    27    36    37    1
    28    36    38    1
    29    36    39    1
    30    33    34   ar
    31    34    35   ar
    32    28    29    1
    33    29    40    1
    34    40    41   ar
    35    40    42   ar
    36     5     6   ar
    37    12    13   ar
    38    13    14    1
    39    13    15   ar
    40    19    20   ar
    41    20    21   ar
    42    21    16   ar
    43    15    10   ar
    44     6     1   ar
    45    29    25    1
    46    35    30   ar
@<TRIPOS>MOLECULE
*****
 42 46 0 0 0
SMALL
GASTEIGER

@<TRIPOS>ATOM
      1 C         141.3098  142.7435  157.8392 C.ar    1  UNL1        0.1383
      2 C         141.6621  143.5652  156.6349 C.ar    1  UNL1        0.0369
      3 C         141.5961  145.0622  156.7030 C.ar    1  UNL1        0.0028
      4 C         141.1778  145.7374  157.9754 C.ar    1  UNL1       -0.0041
      5 C         140.8255  144.9156  159.1798 C.ar    1  UNL1       -0.0186
      6 C         140.8914  143.4186  159.1117 C.ar    1  UNL1        0.0326
      7 O         141.3757  141.2464  157.7712 O.3     1  UNL1       -0.4751
      8 C         142.7051  140.5578  157.6778 C.3     1  UNL1        0.2118
      9 C         143.2580  139.8303  158.8674 C.3     1  UNL1        0.0960
     10 C         141.6410  140.3107  162.3631 C.ar    1  UNL1        0.2289
     11 N         141.7105  139.6147  161.0362 N.ar    1  UNL1       -0.2129
     12 C         142.8339  140.2243  160.2512 C.ar    1  UNL1        0.0960
     13 C         143.4588  141.2972  161.0929 C.ar    1  UNL1        0.1387
     14 C         144.6175  142.1644  160.6987 C.3     1  UNL1        0.0738
     15 O         142.7215  141.3505  162.3982 O.2     1  UNL1       -0.4392
     16 C         138.7063  139.4334  165.6597 C.ar    1  UNL1        0.1387
     17 C         140.1386  139.0099  165.7983 C.ar    1  UNL1        0.0371
     18 C         141.1168  139.3024  164.6994 C.ar    1  UNL1        0.0078
     19 C         140.6628  140.0183  163.4620 C.ar    1  UNL1        0.0537
     20 C         139.2305  140.4417  163.3234 C.ar    1  UNL1        0.0078
     21 C         138.2523  140.1493  164.4223 C.ar    1  UNL1        0.0371
     22 C         137.3818  137.7211  167.0963 C.3     1  UNL1        0.2525
     23 O         137.7281  139.1409  166.7586 O.3     1  UNL1       -0.4714
     24 C         140.4071  145.5908  160.4522 C.3     1  UNL1        0.0376
     25 C         140.6662  144.9284  161.7729 C.3     1  UNL1        0.1052
     26 C         141.8824  144.6827  162.6158 C.2     1  UNL1        0.2315
     27 O         143.3434  144.9976  162.4872 O.2     1  UNL1       -0.2745
     28 N         141.0325  143.9917  163.6407 N.am    1  UNL1       -0.2546
     29 C         139.8164  144.2374  162.7978 C.3     1  UNL1        0.1249
     30 C         141.2916  143.3294  164.9613 C.ar    1  UNL1        0.0541
     31 C         140.1736  143.1579  165.9465 C.ar    1  UNL1        0.0146
     32 C         140.4326  142.4956  167.2672 C.ar    1  UNL1       -0.0030
     33 C         141.8097  142.0047  167.6027 C.ar    1  UNL1       -0.0227
     34 C         142.9277  142.1762  166.6175 C.ar    1  UNL1       -0.0030
     35 C         142.6687  142.8385  165.2969 C.ar    1  UNL1        0.0146
     36 C         142.0688  141.3424  168.9233 C.3     1  UNL1        0.0189
     37 C         140.8131  140.5370  168.7658 C.3     1  UNL1        0.0044
     38 C         143.3244  142.1477  169.0809 C.3     1  UNL1        0.0044
     39 C         142.3278  140.6800  170.2441 C.3     1  UNL1        0.0044
     40 C         138.3554  143.9226  162.9264 C.2     1  UNL1        0.0692
     41 O         137.6117  144.3087  164.1705 O.co2   1  UNL1       -0.5475
     42 O         137.6382  143.2216  161.8110 O.co2   1  UNL1       -0.5475
@<TRIPOS>UNITY_ATOM_ATTR
41 1
charge -1
@<TRIPOS>BOND
     1    22    23    1
     2    23    16    1
     3    16    17   ar
     4    17    18   ar
     5    18    19   ar
     6    19    10    1
     7    10    11   ar
     8    11    12   ar
     9    12     9    1
    10     9     8    1
    11     8     7    1
    12     7     1    1
    13     1     2   ar
    14     2     3   ar
    15     3     4   ar
    16     4     5   ar
    17     5    24    1
    18    25    24    1
    19    25    26    1
    20    26    27    2
    21    26    28   am
    22    28    30    1
    23    30    31   ar
    24    31    32   ar
    25    32    33   ar
    26    33    36    1
    27    36    37    1
    28    36    38    1
    29    36    39    1
    30    33    34   ar
    31    34    35   ar
    32    28    29    1
    33    29    40    1
    34    40    41   ar
    35    40    42   ar
    36     5     6   ar
    37    12    13   ar
    38    13    14    1
    39    13    15   ar
    40    19    20   ar
    41    20    21   ar
    42    21    16   ar
    43    15    10   ar
    44     6     1   ar
    45    29    25    1
    46    35    30   ar
@<TRIPOS>MOLECULE
*****
 42 46 0 0 0
SMALL
GASTEIGER

@<TRIPOS>ATOM
      1 C         141.6131  141.9194  157.7057 C.ar    1  UNL1        0.1383
      2 C         142.6391  142.7879  157.0403 C.ar    1  UNL1        0.0369
      3 C         144.0972  142.5771  157.3230 C.ar    1  UNL1        0.0028
      4 C         144.5291  141.4980  158.2709 C.ar    1  UNL1       -0.0041
      5 C         143.5029  140.6294  158.9364 C.ar    1  UNL1       -0.0186
      6 C         142.0450  140.8401  158.6537 C.ar    1  UNL1        0.0326
      7 O         140.1550  142.1300  157.4231 O.3     1  UNL1       -0.4751
      8 C         139.1320  141.7877  158.4653 C.3     1  UNL1        0.2118
      9 C         138.8039  142.7742  159.5466 C.3     1  UNL1        0.0960
     10 C         139.8260  141.9958  163.2093 C.ar    1  UNL1        0.2289
     11 N         138.8754  141.8589  162.0570 N.ar    1  UNL1       -0.2129
     12 C         139.4318  142.6376  160.9020 C.ar    1  UNL1        0.0960
     13 C         140.7262  143.2559  161.3405 C.ar    1  UNL1        0.1387
     14 C         141.6201  144.1192  160.5005 C.3     1  UNL1        0.0738
     15 O         140.9698  142.8592  162.7664 O.2     1  UNL1       -0.4392
     16 C         139.3327  140.1419  167.2799 C.ar    1  UNL1        0.1387
     17 C         139.6899  141.5933  167.1551 C.ar    1  UNL1        0.0371
     18 C         139.8543  142.2113  165.7982 C.ar    1  UNL1        0.0078
     19 C         139.6616  141.3778  164.5661 C.ar    1  UNL1        0.0537
     20 C         139.3044  139.9263  164.6909 C.ar    1  UNL1        0.0078
     21 C         139.1399  139.3084  166.0478 C.ar    1  UNL1        0.0371
     22 C         138.9127  140.3943  169.8313 C.3     1  UNL1        0.2525
     23 O         139.1683  139.5239  168.6367 O.3     1  UNL1       -0.4714
     24 C         143.9348  139.5502  159.8844 C.3     1  UNL1        0.0376
     25 C         143.7456  139.7298  161.3615 C.3     1  UNL1        0.1052
     26 C         144.4511  140.5046  162.4349 C.2     1  UNL1        0.2315
     27 O         145.6381  141.4207  162.4756 O.2     1  UNL1       -0.2745
     28 N         143.4779  139.9836  163.4506 N.am    1  UNL1       -0.2546
     29 C         142.7725  139.2089  162.3773 C.3     1  UNL1        0.1249
     30 C         143.2887  140.1632  164.9277 C.ar    1  UNL1        0.0541
     31 C         143.3860  141.5311  165.5356 C.ar    1  UNL1        0.0146
     32 C         143.1968  141.7106  167.0127 C.ar    1  UNL1       -0.0030
     33 C         142.9103  140.5222  167.8820 C.ar    1  UNL1       -0.0227
     34 C         142.8130  139.1544  167.2742 C.ar    1  UNL1       -0.0030
     35 C         143.0022  138.9749  165.7971 C.ar    1  UNL1        0.0146
     36 C         142.7211  140.7017  169.3591 C.3     1  UNL1        0.0189
     37 C         142.9844  142.1714  169.2143 C.3     1  UNL1        0.0044
     38 C         142.4579  139.2322  169.5040 C.3     1  UNL1        0.0044
     39 C         142.5319  140.8813  170.8364 C.3     1  UNL1        0.0044
     40 C         141.5854  138.2927  162.3366 C.2     1  UNL1        0.0692
     41 O         141.4214  137.2308  163.3833 O.co2   1  UNL1       -0.5475
     42 O         140.5625  138.4383  161.2492 O.co2   1  UNL1       -0.5475
@<TRIPOS>UNITY_ATOM_ATTR
41 1
charge -1
@<TRIPOS>BOND
     1    22    23    1
     2    23    16    1
     3    16    17   ar
     4    17    18   ar
     5    18    19   ar
     6    19    10    1
     7    10    11   ar
     8    11    12   ar
     9    12     9    1
    10     9     8    1
    11     8     7    1
    12     7     1    1
    13     1     2   ar
    14     2     3   ar
    15     3     4   ar
    16     4     5   ar
    17     5    24    1
    18    25    24    1
    19    25    26    1
    20    26    27    2
    21    26    28   am
    22    28    30    1
    23    30    31   ar
    24    31    32   ar
    25    32    33   ar
    26    33    36    1
    27    36    37    1
    28    36    38    1
    29    36    39    1
    30    33    34   ar
    31    34    35   ar
    32    28    29    1
    33    29    40    1
    34    40    41   ar
    35    40    42   ar
    36     5     6   ar
    37    12    13   ar
    38    13    14    1
    39    13    15   ar
    40    19    20   ar
    41    20    21   ar
    42    21    16   ar
    43    15    10   ar
    44     6     1   ar
    45    29    25    1
    46    35    30   ar
@<TRIPOS>MOLECULE
*****
 42 46 0 0 0
SMALL
GASTEIGER

@<TRIPOS>ATOM
      1 C         141.2063  142.8897  156.9887 C.ar    1  UNL1        0.1383
      2 C         141.9646  143.7924  156.0615 C.ar    1  UNL1        0.0369
      3 C         142.1611  145.2369  156.4153 C.ar    1  UNL1        0.0028
      4 C         141.5992  145.7784  157.6963 C.ar    1  UNL1       -0.0041
      5 C         140.8409  144.8755  158.6236 C.ar    1  UNL1       -0.0186
      6 C         140.6444  143.4312  158.2698 C.ar    1  UNL1        0.0326
      7 O         141.0098  141.4452  156.6349 O.3     1  UNL1       -0.4751
      8 C         139.6345  140.8470  156.6614 C.3     1  UNL1        0.2118
      9 C         139.4275  139.4667  157.2107 C.3     1  UNL1        0.0960
     10 C         139.8528  138.8979  161.0267 C.ar    1  UNL1        0.2289
     11 N         139.0387  139.3561  159.8530 N.ar    1  UNL1       -0.2129
     12 C         139.8548  139.1454  158.6122 C.ar    1  UNL1        0.0960
     13 C         141.1733  138.5570  159.0190 C.ar    1  UNL1        0.1387
     14 C         142.2960  138.1866  158.0957 C.3     1  UNL1        0.0738
     15 O         141.1720  138.4041  160.5112 O.2     1  UNL1       -0.4392
     16 C         138.5636  138.9890  165.3371 C.ar    1  UNL1        0.1387
     17 C         138.1122  140.0665  164.3963 C.ar    1  UNL1        0.0371
     18 C         138.5419  140.0362  162.9595 C.ar    1  UNL1        0.0078
     19 C         139.4230  138.9283  162.4635 C.ar    1  UNL1        0.0537
     20 C         139.8744  137.8507  163.4042 C.ar    1  UNL1        0.0078
     21 C         139.4447  137.8811  164.8410 C.ar    1  UNL1        0.0371
     22 C         137.2256  137.9517  167.3078 C.3     1  UNL1        0.2525
     23 O         138.1338  139.0193  166.7739 O.3     1  UNL1       -0.4714
     24 C         140.2790  145.4170  159.9046 C.3     1  UNL1        0.0376
     25 C         140.4300  144.6387  161.1779 C.3     1  UNL1        0.1052
     26 C         139.4830  144.0824  162.1997 C.2     1  UNL1        0.2315
     27 O         137.9929  144.0740  162.3713 O.2     1  UNL1       -0.2745
     28 N         140.6435  143.5379  162.9788 N.am    1  UNL1       -0.2546
     29 C         141.5904  144.0942  161.9571 C.3     1  UNL1        0.1249
     30 C         140.7945  142.7596  164.2521 C.ar    1  UNL1        0.0541
     31 C         141.6560  141.5321  164.2832 C.ar    1  UNL1        0.0146
     32 C         141.8070  140.7538  165.5565 C.ar    1  UNL1       -0.0030
     33 C         141.0965  141.2030  166.7988 C.ar    1  UNL1       -0.0227
     34 C         140.2350  142.4305  166.7677 C.ar    1  UNL1       -0.0030
     35 C         140.0840  143.2088  165.4944 C.ar    1  UNL1        0.0146
     36 C         141.2474  140.4247  168.0721 C.3     1  UNL1        0.0189
     37 C         142.3379  139.6083  167.4439 C.3     1  UNL1        0.0044
     38 C         140.1571  141.2410  168.7004 C.3     1  UNL1        0.0044
     39 C         141.3985  139.6463  169.3455 C.3     1  UNL1        0.0044
     40 C         143.0806  144.1026  161.7855 C.2     1  UNL1        0.0692
     41 O         143.7082  143.3598  160.6433 O.co2   1  UNL1       -0.5475
     42 O         143.9431  144.8538  162.7559 O.co2   1  UNL1       -0.5475
@<TRIPOS>UNITY_ATOM_ATTR
41 1
charge -1
@<TRIPOS>BOND
     1    22    23    1
     2    23    16    1
     3    16    17   ar
     4    17    18   ar
     5    18    19   ar
     6    19    10    1
     7    10    11   ar
     8    11    12   ar
     9    12     9    1
    10     9     8    1
    11     8     7    1
    12     7     1    1
    13     1     2   ar
    14     2     3   ar
    15     3     4   ar
    16     4     5   ar
    17     5    24    1
    18    25    24    1
    19    25    26    1
    20    26    27    2
    21    26    28   am
    22    28    30    1
    23    30    31   ar
    24    31    32   ar
    25    32    33   ar
    26    33    36    1
    27    36    37    1
    28    36    38    1
    29    36    39    1
    30    33    34   ar
    31    34    35   ar
    32    28    29    1
    33    29    40    1
    34    40    41   ar
    35    40    42   ar
    36     5     6   ar
    37    12    13   ar
    38    13    14    1
    39    13    15   ar
    40    19    20   ar
    41    20    21   ar
    42    21    16   ar
    43    15    10   ar
    44     6     1   ar
    45    29    25    1
    46    35    30   ar
@<TRIPOS>MOLECULE
*****
 42 46 0 0 0
SMALL
GASTEIGER

@<TRIPOS>ATOM
      1 C         140.9626  140.4650  157.8866 C.ar    1  UNL1        0.1383
      2 C         141.6621  139.7035  156.8001 C.ar    1  UNL1        0.0369
      3 C         143.1502  139.8134  156.6459 C.ar    1  UNL1        0.0028
      4 C         143.9386  140.6847  157.5782 C.ar    1  UNL1       -0.0041
      5 C         143.2389  141.4461  158.6648 C.ar    1  UNL1       -0.0186
      6 C         141.7509  141.3363  158.8190 C.ar    1  UNL1        0.0326
      7 O         139.4745  140.3551  158.0408 O.3     1  UNL1       -0.4751
      8 C         138.8924  139.7341  159.2759 C.3     1  UNL1        0.2118
      9 C         139.5165  138.5022  159.8615 C.3     1  UNL1        0.0960
     10 C         140.7019  138.8420  163.5418 C.ar    1  UNL1        0.2289
     11 N         139.6145  138.8591  162.5088 N.ar    1  UNL1       -0.2129
     12 C         140.2387  138.5788  161.1739 C.ar    1  UNL1        0.0960
     13 C         141.7120  138.3884  161.3820 C.ar    1  UNL1        0.1387
     14 C         142.7217  138.0881  160.3142 C.3     1  UNL1        0.0738
     15 O         141.9982  138.5511  162.8454 O.2     1  UNL1       -0.4392
     16 C         140.1689  139.5408  167.9552 C.ar    1  UNL1        0.1387
     17 C         138.9719  139.5020  167.0520 C.ar    1  UNL1        0.0371
     18 C         139.1496  139.2691  165.5809 C.ar    1  UNL1        0.0078
     19 C         140.5243  139.0750  165.0129 C.ar    1  UNL1        0.0537
     20 C         141.7212  139.1138  165.9161 C.ar    1  UNL1        0.0078
     21 C         141.5436  139.3467  167.3872 C.ar    1  UNL1        0.0371
     22 C         138.6731  140.2559  169.9555 C.3     1  UNL1        0.2525
     23 O         139.9913  139.7737  169.4263 O.3     1  UNL1       -0.4714
     24 C         144.0272  142.3175  159.5972 C.3     1  UNL1        0.0376
     25 C         143.6580  142.3887  161.0493 C.3     1  UNL1        0.1052
     26 C         143.9685  141.5655  162.2643 C.2     1  UNL1        0.2315
     27 O         144.7767  140.3302  162.5303 O.2     1  UNL1       -0.2745
     28 N         143.1359  142.4894  163.1029 N.am    1  UNL1       -0.2546
     29 C         142.8254  143.3125  161.8880 C.3     1  UNL1        0.1249
     30 C         142.7667  142.5606  164.5550 C.ar    1  UNL1        0.0541
     31 C         143.8330  142.4639  165.6056 C.ar    1  UNL1        0.0146
     32 C         143.4638  142.5351  167.0577 C.ar    1  UNL1       -0.0030
     33 C         142.0283  142.7030  167.4592 C.ar    1  UNL1       -0.0227
     34 C         140.9621  142.7997  166.4087 C.ar    1  UNL1       -0.0030
     35 C         141.3313  142.7285  164.9566 C.ar    1  UNL1        0.0146
     36 C         141.6592  142.7742  168.9113 C.3     1  UNL1        0.0189
     37 C         140.2846  143.2455  168.5388 C.3     1  UNL1        0.0044
     38 C         143.0336  142.3029  169.2838 C.3     1  UNL1        0.0044
     39 C         141.2899  142.8454  170.3635 C.3     1  UNL1        0.0044
     40 C         142.0172  144.5478  161.6219 C.2     1  UNL1        0.0692
     41 O         141.4396  145.3271  162.7661 O.co2   1  UNL1       -0.5475
     42 O         141.7865  145.0038  160.2116 O.co2   1  UNL1       -0.5475
@<TRIPOS>UNITY_ATOM_ATTR
41 1
charge -1
@<TRIPOS>BOND
     1    22    23    1
     2    23    16    1
     3    16    17   ar
     4    17    18   ar
     5    18    19   ar
     6    19    10    1
     7    10    11   ar
     8    11    12   ar
     9    12     9    1
    10     9     8    1
    11     8     7    1
    12     7     1    1
    13     1     2   ar
    14     2     3   ar
    15     3     4   ar
    16     4     5   ar
    17     5    24    1
    18    25    24    1
    19    25    26    1
    20    26    27    2
    21    26    28   am
    22    28    30    1
    23    30    31   ar
    24    31    32   ar
    25    32    33   ar
    26    33    36    1
    27    36    37    1
    28    36    38    1
    29    36    39    1
    30    33    34   ar
    31    34    35   ar
    32    28    29    1
    33    29    40    1
    34    40    41   ar
    35    40    42   ar
    36     5     6   ar
    37    12    13   ar
    38    13    14    1
    39    13    15   ar
    40    19    20   ar
    41    20    21   ar
    42    21    16   ar
    43    15    10   ar
    44     6     1   ar
    45    29    25    1
    46    35    30   ar
@<TRIPOS>MOLECULE
*****
 42 46 0 0 0
SMALL
GASTEIGER

@<TRIPOS>ATOM
      1 C         141.2618  141.6257  168.1561 C.ar    1  UNL1        0.1383
      2 C         140.8657  141.6445  169.6026 C.ar    1  UNL1        0.0369
      3 C         139.6974  140.8284  170.0709 C.ar    1  UNL1        0.0028
      4 C         138.9254  139.9936  169.0926 C.ar    1  UNL1       -0.0041
      5 C         139.3216  139.9749  167.6460 C.ar    1  UNL1       -0.0186
      6 C         140.4898  140.7909  167.1777 C.ar    1  UNL1        0.0326
      7 O         142.4301  142.4418  167.6877 O.3     1  UNL1       -0.4751
      8 C         143.1776  142.0403  166.4507 C.3     1  UNL1        0.2118
      9 C         143.4836  143.0609  165.3949 C.3     1  UNL1        0.0960
     10 C         142.2940  142.4809  161.7461 C.ar    1  UNL1        0.2289
     11 N         142.0488  142.9740  163.1413 N.ar    1  UNL1       -0.2129
     12 C         143.2892  142.7230  163.9465 C.ar    1  UNL1        0.0960
     13 C         144.3012  142.0748  163.0489 C.ar    1  UNL1        0.1387
     14 C         145.6852  141.6506  163.4421 C.3     1  UNL1        0.0738
     15 O         143.6861  141.9252  161.6890 O.2     1  UNL1       -0.4392
     16 C         139.3675  142.6408  158.3314 C.ar    1  UNL1        0.1387
     17 C         140.8388  142.5485  158.0545 C.ar    1  UNL1        0.0371
     18 C         141.8143  142.4952  159.1927 C.ar    1  UNL1        0.0078
     19 C         141.3185  142.5342  160.6079 C.ar    1  UNL1        0.0537
     20 C         139.8472  142.6265  160.8847 C.ar    1  UNL1        0.0078
     21 C         138.8717  142.6798  159.7465 C.ar    1  UNL1        0.0371
     22 C         137.3606  141.6162  157.0383 C.3     1  UNL1        0.2525
     23 O         138.3920  142.6941  157.1932 O.3     1  UNL1       -0.4714
     24 C         138.5497  139.1401  166.6677 C.3     1  UNL1        0.0376
     25 C         138.9643  139.0977  165.2268 C.3     1  UNL1        0.1052
     26 C         139.8252  138.1919  164.3970 C.2     1  UNL1        0.2315
     27 O         140.6280  136.9533  164.6645 O.2     1  UNL1       -0.2745
     28 N         139.5508  139.0377  163.1890 N.am    1  UNL1       -0.2546
     29 C         138.6900  139.9434  164.0187 C.3     1  UNL1        0.1249
     30 C         139.9655  138.9954  161.7481 C.ar    1  UNL1        0.0541
     31 C         141.4181  138.8924  161.3884 C.ar    1  UNL1        0.0146
     32 C         141.8328  138.8500  159.9475 C.ar    1  UNL1       -0.0030
     33 C         140.7949  138.9106  158.8663 C.ar    1  UNL1       -0.0227
     34 C         139.3423  139.0135  159.2260 C.ar    1  UNL1       -0.0030
     35 C         138.9277  139.0559  160.6668 C.ar    1  UNL1        0.0146
     36 C         141.2095  138.8682  157.4254 C.3     1  UNL1        0.0189
     37 C         142.6469  138.9957  157.8353 C.3     1  UNL1        0.0044
     38 C         139.7723  138.7407  157.0155 C.3     1  UNL1        0.0044
     39 C         141.6243  138.8258  155.9844 C.3     1  UNL1        0.0044
     40 C         137.8871  141.1821  163.7513 C.2     1  UNL1        0.0692
     41 O         137.0029  141.2561  162.5419 O.co2   1  UNL1       -0.5475
     42 O         137.9686  142.3466  164.6933 O.co2   1  UNL1       -0.5475
@<TRIPOS>UNITY_ATOM_ATTR
41 1
charge -1
@<TRIPOS>BOND
     1    22    23    1
     2    23    16    1
     3    16    17   ar
     4    17    18   ar
     5    18    19   ar
     6    19    10    1
     7    10    11   ar
     8    11    12   ar
     9    12     9    1
    10     9     8    1
    11     8     7    1
    12     7     1    1
    13     1     2   ar
    14     2     3   ar
    15     3     4   ar
    16     4     5   ar
    17     5    24    1
    18    25    24    1
    19    25    26    1
    20    26    27    2
    21    26    28   am
    22    28    30    1
    23    30    31   ar
    24    31    32   ar
    25    32    33   ar
    26    33    36    1
    27    36    37    1
    28    36    38    1
    29    36    39    1
    30    33    34   ar
    31    34    35   ar
    32    28    29    1
    33    29    40    1
    34    40    41   ar
    35    40    42   ar
    36     5     6   ar
    37    12    13   ar
    38    13    14    1
    39    13    15   ar
    40    19    20   ar
    41    20    21   ar
    42    21    16   ar
    43    15    10   ar
    44     6     1   ar
    45    29    25    1
    46    35    30   ar
@<TRIPOS>MOLECULE
*****
 42 46 0 0 0
SMALL
GASTEIGER

@<TRIPOS>ATOM
      1 C         139.0816  142.0885  158.4493 C.ar    1  UNL1        0.1383
      2 C         139.8545  141.3222  157.4172 C.ar    1  UNL1        0.0369
      3 C         139.9771  139.8311  157.5262 C.ar    1  UNL1        0.0028
      4 C         139.3268  139.1065  158.6672 C.ar    1  UNL1       -0.0041
      5 C         138.5538  139.8729  159.6993 C.ar    1  UNL1       -0.0186
      6 C         138.4312  141.3639  159.5903 C.ar    1  UNL1        0.0326
      7 O         138.9589  143.5796  158.3403 O.3     1  UNL1       -0.4751
      8 C         140.1436  144.4012  157.9264 C.3     1  UNL1        0.2118
      9 C         140.8809  145.2200  158.9442 C.3     1  UNL1        0.0960
     10 C         141.8552  143.2981  162.1726 C.ar    1  UNL1        0.2289
     11 N         141.9107  143.4711  160.6836 N.ar    1  UNL1       -0.2129
     12 C         141.0978  144.6801  160.3267 C.ar    1  UNL1        0.0960
     13 C         140.5398  145.2544  161.5951 C.ar    1  UNL1        0.1387
     14 C         139.6670  146.4695  161.7037 C.3     1  UNL1        0.0738
     15 O         141.0079  144.4003  162.7359 O.2     1  UNL1       -0.4392
     16 C         143.8756  140.0441  164.5346 C.ar    1  UNL1        0.1387
     17 C         143.0626  139.6969  163.3229 C.ar    1  UNL1        0.0371
     18 C         142.3891  140.7815  162.5355 C.ar    1  UNL1        0.0078
     19 C         142.5287  142.2134  162.9599 C.ar    1  UNL1        0.0537
     20 C         143.3417  142.5607  164.1717 C.ar    1  UNL1        0.0078
     21 C         144.0151  141.4760  164.9590 C.ar    1  UNL1        0.0371
     22 C         143.7748  138.1863  166.3481 C.3     1  UNL1        0.2525
     23 O         144.5491  138.9594  165.3220 O.3     1  UNL1       -0.4714
     24 C         137.9034  139.1483  160.8403 C.3     1  UNL1        0.0376
     25 C         138.3235  139.4394  162.2505 C.3     1  UNL1        0.1052
     26 C         137.9276  140.4471  163.2887 C.2     1  UNL1        0.2315
     27 O         136.9475  141.5811  163.3467 O.2     1  UNL1       -0.2745
     28 N         138.9178  139.8510  164.2449 N.am    1  UNL1       -0.2546
     29 C         139.3136  138.8433  163.2067 C.3     1  UNL1        0.1249
     30 C         139.3379  140.1420  165.6551 C.ar    1  UNL1        0.0541
     31 C         140.4623  141.0988  165.9204 C.ar    1  UNL1        0.0146
     32 C         140.8824  141.3899  167.3306 C.ar    1  UNL1       -0.0030
     33 C         140.1782  140.7241  168.4756 C.ar    1  UNL1       -0.0227
     34 C         139.0539  139.7674  168.2103 C.ar    1  UNL1       -0.0030
     35 C         138.6338  139.4763  166.8001 C.ar    1  UNL1        0.0146
     36 C         140.5984  141.0152  169.8858 C.3     1  UNL1        0.0189
     37 C         139.9361  142.3588  169.8058 C.3     1  UNL1        0.0044
     38 C         141.2606  139.6717  169.9658 C.3     1  UNL1        0.0044
     39 C         141.0185  141.3063  171.2961 C.3     1  UNL1        0.0044
     40 C         140.2938  137.7092  163.1488 C.2     1  UNL1        0.0692
     41 O         140.9110  137.3176  161.8389 O.co2   1  UNL1       -0.5475
     42 O         140.6566  136.9668  164.4006 O.co2   1  UNL1       -0.5475
@<TRIPOS>UNITY_ATOM_ATTR
41 1
charge -1
@<TRIPOS>BOND
     1    22    23    1
     2    23    16    1
     3    16    17   ar
     4    17    18   ar
     5    18    19   ar
     6    19    10    1
     7    10    11   ar
     8    11    12   ar
     9    12     9    1
    10     9     8    1
    11     8     7    1
    12     7     1    1
    13     1     2   ar
    14     2     3   ar
    15     3     4   ar
    16     4     5   ar
    17     5    24    1
    18    25    24    1
    19    25    26    1
    20    26    27    2
    21    26    28   am
    22    28    30    1
    23    30    31   ar
    24    31    32   ar
    25    32    33   ar
    26    33    36    1
    27    36    37    1
    28    36    38    1
    29    36    39    1
    30    33    34   ar
    31    34    35   ar
    32    28    29    1
    33    29    40    1
    34    40    41   ar
    35    40    42   ar
    36     5     6   ar
    37    12    13   ar
    38    13    14    1
    39    13    15   ar
    40    19    20   ar
    41    20    21   ar
    42    21    16   ar
    43    15    10   ar
    44     6     1   ar
    45    29    25    1
    46    35    30   ar
@<TRIPOS>MOLECULE
*****
 42 46 0 0 0
SMALL
GASTEIGER

@<TRIPOS>ATOM
      1 C         142.1619  143.1673  157.3442 C.ar    1  UNL1        0.1383
      2 C         142.4198  144.1783  156.2666 C.ar    1  UNL1        0.0369
      3 C         141.9312  145.5874  156.4278 C.ar    1  UNL1        0.0028
      4 C         141.1848  145.9853  157.6665 C.ar    1  UNL1       -0.0041
      5 C         140.9269  144.9742  158.7441 C.ar    1  UNL1       -0.0186
      6 C         141.4155  143.5652  158.5829 C.ar    1  UNL1        0.0326
      7 O         142.6505  141.7582  157.1830 O.3     1  UNL1       -0.4751
      8 C         142.2582  140.7097  158.1813 C.3     1  UNL1        0.2118
      9 C         140.9304  140.0218  158.0639 C.3     1  UNL1        0.0960
     10 C         138.9738  139.8463  161.4115 C.ar    1  UNL1        0.2289
     11 N         140.2185  139.6127  160.6077 N.ar    1  UNL1       -0.2129
     12 C         139.9567  140.0714  159.2037 C.ar    1  UNL1        0.0960
     13 C         138.5501  140.5885  159.1398 C.ar    1  UNL1        0.1387
     14 C         137.8702  141.1468  157.9249 C.3     1  UNL1        0.0738
     15 O         137.9426  140.4494  160.5043 O.2     1  UNL1       -0.4392
     16 C         138.4288  138.9032  165.7776 C.ar    1  UNL1        0.1387
     17 C         137.8952  140.1874  165.2154 C.ar    1  UNL1        0.0371
     18 C         138.0769  140.5017  163.7600 C.ar    1  UNL1        0.0078
     19 C         138.7921  139.5319  162.8669 C.ar    1  UNL1        0.0537
     20 C         139.3257  138.2478  163.4291 C.ar    1  UNL1        0.0078
     21 C         139.1440  137.9334  164.8845 C.ar    1  UNL1        0.0371
     22 C         137.0198  137.8611  167.6956 C.3     1  UNL1        0.2525
     23 O         138.2471  138.5889  167.2330 O.3     1  UNL1       -0.4714
     24 C         140.1805  145.3721  159.9828 C.3     1  UNL1        0.0376
     25 C         140.3667  144.5955  161.2526 C.3     1  UNL1        0.1052
     26 C         139.4480  143.9197  162.2270 C.2     1  UNL1        0.2315
     27 O         137.9627  143.7407  162.3353 O.2     1  UNL1       -0.2745
     28 N         140.6300  143.4971  163.0483 N.am    1  UNL1       -0.2546
     29 C         141.5486  144.1729  162.0739 C.3     1  UNL1        0.1249
     30 C         140.8162  142.7205  164.3180 C.ar    1  UNL1        0.0541
     31 C         141.6136  141.4501  164.3101 C.ar    1  UNL1        0.0146
     32 C         141.7997  140.6735  165.5798 C.ar    1  UNL1       -0.0030
     33 C         141.1885  141.1674  166.8574 C.ar    1  UNL1       -0.0227
     34 C         140.3911  142.4378  166.8654 C.ar    1  UNL1       -0.0030
     35 C         140.2050  143.2144  165.5957 C.ar    1  UNL1        0.0146
     36 C         141.3747  140.3908  168.1272 C.3     1  UNL1        0.0189
     37 C         140.1593  141.0502  168.7087 C.3     1  UNL1        0.0044
     38 C         142.5900  139.7314  167.5457 C.3     1  UNL1        0.0044
     39 C         141.5608  139.6141  169.3970 C.3     1  UNL1        0.0044
     40 C         143.0340  144.3519  161.9655 C.2     1  UNL1        0.0692
     41 O         143.8093  143.5815  160.9382 O.co2   1  UNL1       -0.5475
     42 O         143.7440  145.3013  162.8845 O.co2   1  UNL1       -0.5475
@<TRIPOS>UNITY_ATOM_ATTR
41 1
charge -1
@<TRIPOS>BOND
     1    22    23    1
     2    23    16    1
     3    16    17   ar
     4    17    18   ar
     5    18    19   ar
     6    19    10    1
     7    10    11   ar
     8    11    12   ar
     9    12     9    1
    10     9     8    1
    11     8     7    1
    12     7     1    1
    13     1     2   ar
    14     2     3   ar
    15     3     4   ar
    16     4     5   ar
    17     5    24    1
    18    25    24    1
    19    25    26    1
    20    26    27    2
    21    26    28   am
    22    28    30    1
    23    30    31   ar
    24    31    32   ar
    25    32    33   ar
    26    33    36    1
    27    36    37    1
    28    36    38    1
    29    36    39    1
    30    33    34   ar
    31    34    35   ar
    32    28    29    1
    33    29    40    1
    34    40    41   ar
    35    40    42   ar
    36     5     6   ar
    37    12    13   ar
    38    13    14    1
    39    13    15   ar
    40    19    20   ar
    41    20    21   ar
    42    21    16   ar
    43    15    10   ar
    44     6     1   ar
    45    29    25    1
    46    35    30   ar
