@<TRIPOS>MOLECULE
*****
 19 20 0 0 0
SMALL
GASTEIGER

@<TRIPOS>ATOM
      1 C         139.2558  141.0417  165.3055 C.3     1  UNL1        0.0544
      2 C         139.7547  141.2426  166.7058 C.3     1  UNL1        0.0234
      3 C         139.4015  140.2537  167.7769 C.3     1  UNL1        0.0629
      4 C         138.5495  139.0639  167.4478 C.3     1  UNL1        0.0247
      5 C         138.0506  138.8630  166.0475 C.3     1  UNL1        0.0690
      6 N         138.4038  139.8519  164.9764 N.3     1  UNL1       -0.2985
      7 H         137.5241  140.2128  164.6072 H       1  UNL1        0.1232
      8 C         139.9004  140.4547  169.1772 C.ar    1  UNL1        0.1547
      9 C         140.7193  141.6134  169.6637 C.ar    1  UNL1        0.0986
     10 C         140.9929  141.4070  171.1240 C.ar    1  UNL1        0.2884
     11 O         141.7785  142.3257  172.0123 O.2     1  UNL1       -0.2645
     12 N         140.3432  140.1206  171.5401 N.ar    1  UNL1       -0.1839
     13 O         139.6679  139.5321  170.3369 O.2     1  UNL1       -0.3802
     14 H         140.3574  139.7310  172.4441 H       1  UNL1        0.2107
     15 C         139.6090  142.0306  164.2344 C.3     1  UNL1        0.0157
     16 C         140.8352  143.7429  164.4876 C.3     1  UNL1        0.0000
     17 C         139.3567  143.4932  164.4512 C.3     1  UNL1        0.0013
     18 C         137.8781  143.2435  164.4148 C.3     1  UNL1        0.0000
     19 C         139.1042  144.9559  164.6680 C.3     1  UNL1        0.0000
@<TRIPOS>BOND
     1    16    17    1
     2    17    18    1
     3    17    19    1
     4    17    15    1
     5     1    15    1
     6     1     2    1
     7     2     3    1
     8     3     8    1
     9     8     9   ar
    10     9    10   ar
    11    10    11    2
    12    10    12   ar
    13    12    13   ar
    14     3     4    1
    15     4     5    1
    16     5     6    1
    17     6     1    1
    18    13     8   ar
    19    12    14    1
    20     6     7    1
@<TRIPOS>MOLECULE
*****
 19 20 0 0 0
SMALL
GASTEIGER

@<TRIPOS>ATOM
      1 C         142.6884  140.9599  165.0860 C.3     1  UNL1        0.0544
      2 C         142.4410  141.2464  166.5374 C.3     1  UNL1        0.0234
      3 C         142.6565  140.1716  167.5614 C.3     1  UNL1        0.0629
      4 C         143.1194  138.8104  167.1339 C.3     1  UNL1        0.0247
      5 C         143.3668  138.5239  165.6825 C.3     1  UNL1        0.0690
      6 N         143.1513  139.5987  164.6586 N.3     1  UNL1       -0.2985
      7 H         142.4564  139.2442  164.0014 H       1  UNL1        0.1232
      8 C         142.4090  140.4582  169.0129 C.ar    1  UNL1        0.1547
      9 C         141.3357  141.3486  169.5653 C.ar    1  UNL1        0.0986
     10 C         141.4548  141.3453  171.0605 C.ar    1  UNL1        0.2884
     11 O         140.5805  142.1017  172.0163 O.2     1  UNL1       -0.2645
     12 N         142.6017  140.4528  171.4323 N.ar    1  UNL1       -0.1839
     13 O         143.1914  139.9045  170.1667 O.2     1  UNL1       -0.3802
     14 H         142.9128  140.2606  172.3464 H       1  UNL1        0.2107
     15 C         142.4729  142.0346  164.0620 C.3     1  UNL1        0.0157
     16 C         144.4965  142.6709  164.0596 C.3     1  UNL1        0.0000
     17 C         143.1696  143.3554  164.2031 C.3     1  UNL1        0.0013
     18 C         141.8427  144.0400  164.3465 C.3     1  UNL1        0.0000
     19 C         143.8663  144.6764  164.3441 C.3     1  UNL1        0.0000
@<TRIPOS>BOND
     1    16    17    1
     2    17    18    1
     3    17    19    1
     4    17    15    1
     5     1    15    1
     6     1     2    1
     7     2     3    1
     8     3     8    1
     9     8     9   ar
    10     9    10   ar
    11    10    11    2
    12    10    12   ar
    13    12    13   ar
    14     3     4    1
    15     4     5    1
    16     5     6    1
    17     6     1    1
    18    13     8   ar
    19    12    14    1
    20     6     7    1
@<TRIPOS>MOLECULE
*****
 19 20 0 0 0
SMALL
GASTEIGER

@<TRIPOS>ATOM
      1 C         142.0735  139.0189  165.3371 C.3     1  UNL1        0.0544
      2 C         141.9481  139.2046  166.8202 C.3     1  UNL1        0.0234
      3 C         142.3755  140.4955  167.4533 C.3     1  UNL1        0.0629
      4 C         142.9284  141.6008  166.6032 C.3     1  UNL1        0.0247
      5 C         143.0538  141.4151  165.1201 C.3     1  UNL1        0.0690
      6 N         142.6264  140.1242  164.4870 N.3     1  UNL1       -0.2985
      7 H         143.4437  139.7464  164.0078 H       1  UNL1        0.1232
      8 C         142.2501  140.6812  168.9365 C.ar    1  UNL1        0.1547
      9 C         141.2215  141.5192  169.6363 C.ar    1  UNL1        0.0986
     10 C         141.4669  141.4173  171.1126 C.ar    1  UNL1        0.2884
     11 O         140.6717  142.0970  172.1876 O.2     1  UNL1       -0.2645
     12 N         142.6472  140.5162  171.3252 N.ar    1  UNL1       -0.1839
     13 O         143.1312  140.0613  169.9803 O.2     1  UNL1       -0.3802
     14 H         143.0360  140.2672  172.1947 H       1  UNL1        0.2107
     15 C         141.6460  137.7280  164.7040 C.3     1  UNL1        0.0157
     16 C         141.4108  137.6008  162.5996 C.3     1  UNL1        0.0000
     17 C         140.4748  137.7038  163.7672 C.3     1  UNL1        0.0013
     18 C         139.5388  137.8067  164.9347 C.3     1  UNL1        0.0000
     19 C         139.3035  137.6795  162.8304 C.3     1  UNL1        0.0000
@<TRIPOS>BOND
     1    16    17    1
     2    17    18    1
     3    17    19    1
     4    17    15    1
     5     1    15    1
     6     1     2    1
     7     2     3    1
     8     3     8    1
     9     8     9   ar
    10     9    10   ar
    11    10    11    2
    12    10    12   ar
    13    12    13   ar
    14     3     4    1
    15     4     5    1
    16     5     6    1
    17     6     1    1
    18    13     8   ar
    19    12    14    1
    20     6     7    1
@<TRIPOS>MOLECULE
*****
 19 20 0 0 0
SMALL
GASTEIGER

@<TRIPOS>ATOM
      1 C         140.9333  140.1609  164.5582 C.3     1  UNL1        0.0544
      2 C         140.8338  140.2820  166.0500 C.3     1  UNL1        0.0234
      3 C         139.5828  139.8500  166.7558 C.3     1  UNL1        0.0629
      4 C         138.4312  139.2968  165.9699 C.3     1  UNL1        0.0247
      5 C         138.5307  139.1756  164.4781 C.3     1  UNL1        0.0690
      6 N         139.7817  139.6077  163.7723 N.3     1  UNL1       -0.2985
      7 H         139.5088  140.3278  163.1035 H       1  UNL1        0.1232
      8 C         139.4833  139.9712  168.2476 C.ar    1  UNL1        0.1547
      9 C         140.5083  140.5882  169.1524 C.ar    1  UNL1        0.0986
     10 C         139.9999  140.4950  170.5605 C.ar    1  UNL1        0.2884
     11 O         140.7066  140.9896  171.7877 O.2     1  UNL1       -0.2645
     12 N         138.6606  139.8203  170.5260 N.ar    1  UNL1       -0.1839
     13 O         138.3414  139.4966  169.0966 O.2     1  UNL1       -0.3802
     14 H         138.0911  139.6244  171.3048 H       1  UNL1        0.2107
     15 C         142.1844  140.5929  163.8524 C.3     1  UNL1        0.0157
     16 C         143.9651  141.2828  164.7761 C.3     1  UNL1        0.0000
     17 C         143.5014  139.9721  164.2130 C.3     1  UNL1        0.0013
     18 C         143.0378  138.6614  163.6499 C.3     1  UNL1        0.0000
     19 C         144.8185  139.3512  164.5735 C.3     1  UNL1        0.0000
@<TRIPOS>BOND
     1    16    17    1
     2    17    18    1
     3    17    19    1
     4    17    15    1
     5     1    15    1
     6     1     2    1
     7     2     3    1
     8     3     8    1
     9     8     9   ar
    10     9    10   ar
    11    10    11    2
    12    10    12   ar
    13    12    13   ar
    14     3     4    1
    15     4     5    1
    16     5     6    1
    17     6     1    1
    18    13     8   ar
    19    12    14    1
    20     6     7    1
@<TRIPOS>MOLECULE
*****
 19 20 0 0 0
SMALL
GASTEIGER

@<TRIPOS>ATOM
      1 C         139.2758  139.6510  164.6692 C.3     1  UNL1        0.0544
      2 C         139.2731  139.6164  166.1688 C.3     1  UNL1        0.0234
      3 C         139.8489  140.7626  166.9464 C.3     1  UNL1        0.0629
      4 C         140.4274  141.9433  166.2245 C.3     1  UNL1        0.0247
      5 C         140.4301  141.9779  164.7250 C.3     1  UNL1        0.0690
      6 N         139.8543  140.8317  163.9473 N.3     1  UNL1       -0.2985
      7 H         140.6015  140.4753  163.3514 H       1  UNL1        0.1232
      8 C         139.8462  140.7280  168.4461 C.ar    1  UNL1        0.1547
      9 C         140.3725  141.8000  169.3537 C.ar    1  UNL1        0.0986
     10 C         140.1683  141.3498  170.7699 C.ar    1  UNL1        0.2884
     11 O         140.5496  142.1154  172.0021 O.2     1  UNL1       -0.2645
     12 N         139.5158  139.9995  170.7376 N.ar    1  UNL1       -0.1839
     13 O         139.3167  139.6152  169.3014 O.2     1  UNL1       -0.3802
     14 H         139.2626  139.4602  171.5213 H       1  UNL1        0.2107
     15 C         138.7000  138.5048  163.8916 C.3     1  UNL1        0.0157
     16 C         140.3457  137.5693  162.9343 C.3     1  UNL1        0.0000
     17 C         139.1122  138.2831  162.4665 C.3     1  UNL1        0.0013
     18 C         137.8787  138.9969  161.9987 C.3     1  UNL1        0.0000
     19 C         139.5244  138.0614  161.0413 C.3     1  UNL1        0.0000
@<TRIPOS>BOND
     1    16    17    1
     2    17    18    1
     3    17    19    1
     4    17    15    1
     5     1    15    1
     6     1     2    1
     7     2     3    1
     8     3     8    1
     9     8     9   ar
    10     9    10   ar
    11    10    11    2
    12    10    12   ar
    13    12    13   ar
    14     3     4    1
    15     4     5    1
    16     5     6    1
    17     6     1    1
    18    13     8   ar
    19    12    14    1
    20     6     7    1
@<TRIPOS>MOLECULE
*****
 19 20 0 0 0
SMALL
GASTEIGER

@<TRIPOS>ATOM
      1 C         139.8054  140.7375  167.1288 C.3     1  UNL1        0.0544
      2 C         139.6398  141.8924  166.1862 C.3     1  UNL1        0.0234
      3 C         138.7958  141.7410  164.9554 C.3     1  UNL1        0.0629
      4 C         138.1175  140.4346  164.6673 C.3     1  UNL1        0.0247
      5 C         138.2831  139.2796  165.6099 C.3     1  UNL1        0.0690
      6 N         139.1271  139.4311  166.8407 N.3     1  UNL1       -0.2985
      7 H         139.8607  138.7247  166.7834 H       1  UNL1        0.1232
      8 C         138.6302  142.8960  164.0128 C.ar    1  UNL1        0.1547
      9 C         139.6412  143.9729  163.7516 C.ar    1  UNL1        0.0986
     10 C         139.0604  144.9194  162.7433 C.ar    1  UNL1        0.2884
     11 O         139.7317  146.1429  162.1935 O.2     1  UNL1       -0.2645
     12 N         137.6903  144.4274  162.3812 N.ar    1  UNL1       -0.1839
     13 O         137.4245  143.1770  163.1658 O.2     1  UNL1       -0.3802
     14 H         137.0739  144.8510  161.7410 H       1  UNL1        0.2107
     15 C         140.6494  140.8889  168.3596 C.3     1  UNL1        0.0157
     16 C         139.1602  140.7859  169.8668 C.3     1  UNL1        0.0000
     17 C         140.2004  141.7913  169.4705 C.3     1  UNL1        0.0013
     18 C         141.2406  142.7967  169.0742 C.3     1  UNL1        0.0000
     19 C         139.7514  142.6937  170.5814 C.3     1  UNL1        0.0000
@<TRIPOS>BOND
     1    16    17    1
     2    17    18    1
     3    17    19    1
     4    17    15    1
     5     1    15    1
     6     1     2    1
     7     2     3    1
     8     3     8    1
     9     8     9   ar
    10     9    10   ar
    11    10    11    2
    12    10    12   ar
    13    12    13   ar
    14     3     4    1
    15     4     5    1
    16     5     6    1
    17     6     1    1
    18    13     8   ar
    19    12    14    1
    20     6     7    1
@<TRIPOS>MOLECULE
*****
 19 20 0 0 0
SMALL
GASTEIGER

@<TRIPOS>ATOM
      1 C         139.5441  140.6320  165.0217 C.3     1  UNL1        0.0544
      2 C         139.4706  141.0794  166.4515 C.3     1  UNL1        0.0234
      3 C         140.4263  142.1162  166.9631 C.3     1  UNL1        0.0629
      4 C         141.4554  142.7058  166.0448 C.3     1  UNL1        0.0247
      5 C         141.5289  142.2584  164.6150 C.3     1  UNL1        0.0690
      6 N         140.5732  141.2216  164.1034 N.3     1  UNL1       -0.2985
      7 H         141.1379  140.4459  163.7573 H       1  UNL1        0.1232
      8 C         140.3528  142.5635  168.3930 C.ar    1  UNL1        0.1547
      9 C         140.5331  141.6914  169.6000 C.ar    1  UNL1        0.0986
     10 C         140.3778  142.5504  170.8199 C.ar    1  UNL1        0.2884
     11 O         140.4807  142.0876  172.2430 O.2     1  UNL1       -0.2645
     12 N         140.1015  143.9534  170.3668 N.ar    1  UNL1       -0.1839
     13 O         140.0861  143.9615  168.8669 O.2     1  UNL1       -0.3802
     14 H         139.9559  144.7322  170.9512 H       1  UNL1        0.2107
     15 C         138.5885  139.5952  164.5102 C.3     1  UNL1        0.0157
     16 C         138.1557  139.4010  162.4426 C.3     1  UNL1        0.0000
     17 C         139.0138  138.6554  163.4212 C.3     1  UNL1        0.0013
     18 C         139.8719  137.9098  164.3998 C.3     1  UNL1        0.0000
     19 C         139.4391  137.7156  162.3322 C.3     1  UNL1        0.0000
@<TRIPOS>BOND
     1    16    17    1
     2    17    18    1
     3    17    19    1
     4    17    15    1
     5     1    15    1
     6     1     2    1
     7     2     3    1
     8     3     8    1
     9     8     9   ar
    10     9    10   ar
    11    10    11    2
    12    10    12   ar
    13    12    13   ar
    14     3     4    1
    15     4     5    1
    16     5     6    1
    17     6     1    1
    18    13     8   ar
    19    12    14    1
    20     6     7    1
@<TRIPOS>MOLECULE
*****
 19 20 0 0 0
SMALL
GASTEIGER

@<TRIPOS>ATOM
      1 C         140.7336  142.1284  164.5598 C.3     1  UNL1        0.0544
      2 C         140.2756  142.4154  165.9590 C.3     1  UNL1        0.0234
      3 C         141.2700  142.4496  167.0815 C.3     1  UNL1        0.0629
      4 C         142.7224  142.1968  166.8048 C.3     1  UNL1        0.0247
      5 C         143.1804  141.9098  165.4055 C.3     1  UNL1        0.0690
      6 N         142.1860  141.8756  164.2831 N.3     1  UNL1       -0.2985
      7 H         142.2486  140.9485  163.8624 H       1  UNL1        0.1232
      8 C         140.8120  142.7367  168.4807 C.ar    1  UNL1        0.1547
      9 C         141.0224  141.8548  169.6757 C.ar    1  UNL1        0.0986
     10 C         140.4035  142.5290  170.8641 C.ar    1  UNL1        0.2884
     11 O         140.3815  141.9979  172.2668 O.2     1  UNL1       -0.2645
     12 N         139.8106  143.8277  170.4036 N.ar    1  UNL1       -0.1839
     13 O         140.0631  143.9560  168.9306 O.2     1  UNL1       -0.3802
     14 H         139.3387  144.4811  170.9690 H       1  UNL1        0.2107
     15 C         139.7392  142.0942  163.4373 C.3     1  UNL1        0.0157
     16 C         137.6329  142.2478  163.6367 C.3     1  UNL1        0.0000
     17 C         138.7376  143.2008  163.2886 C.3     1  UNL1        0.0013
     18 C         139.8424  144.1539  162.9404 C.3     1  UNL1        0.0000
     19 C         137.7361  144.3076  163.1399 C.3     1  UNL1        0.0000
@<TRIPOS>BOND
     1    16    17    1
     2    17    18    1
     3    17    19    1
     4    17    15    1
     5     1    15    1
     6     1     2    1
     7     2     3    1
     8     3     8    1
     9     8     9   ar
    10     9    10   ar
    11    10    11    2
    12    10    12   ar
    13    12    13   ar
    14     3     4    1
    15     4     5    1
    16     5     6    1
    17     6     1    1
    18    13     8   ar
    19    12    14    1
    20     6     7    1
@<TRIPOS>MOLECULE
*****
 19 20 0 0 0
SMALL
GASTEIGER

@<TRIPOS>ATOM
      1 C         140.3167  138.8159  165.4557 C.3     1  UNL1        0.0544
      2 C         140.5360  139.2624  166.8707 C.3     1  UNL1        0.0234
      3 C         141.9284  139.5047  167.3735 C.3     1  UNL1        0.0629
      4 C         143.1013  139.3004  166.4611 C.3     1  UNL1        0.0247
      5 C         142.8820  138.8539  165.0461 C.3     1  UNL1        0.0690
      6 N         141.4896  138.6117  164.5433 N.3     1  UNL1       -0.2985
      7 H         141.4541  137.6414  164.2308 H       1  UNL1        0.1232
      8 C         142.1477  139.9512  168.7886 C.ar    1  UNL1        0.1547
      9 C         141.5767  141.1850  169.4224 C.ar    1  UNL1        0.0986
     10 C         142.0527  141.2386  170.8439 C.ar    1  UNL1        0.2884
     11 O         141.7216  142.3056  171.8449 O.2     1  UNL1       -0.2645
     12 N         142.9178  140.0379  171.0886 N.ar    1  UNL1       -0.1839
     13 O         142.9766  139.2423  169.8184 O.2     1  UNL1       -0.3802
     14 H         143.3681  139.8118  171.9344 H       1  UNL1        0.2107
     15 C         138.9244  138.5737  164.9529 C.3     1  UNL1        0.0157
     16 C         138.3115  140.4412  164.1549 C.3     1  UNL1        0.0000
     17 C         138.5213  139.0657  163.5945 C.3     1  UNL1        0.0013
     18 C         138.7310  137.6902  163.0341 C.3     1  UNL1        0.0000
     19 C         138.1181  139.5577  162.2360 C.3     1  UNL1        0.0000
@<TRIPOS>BOND
     1    16    17    1
     2    17    18    1
     3    17    19    1
     4    17    15    1
     5     1    15    1
     6     1     2    1
     7     2     3    1
     8     3     8    1
     9     8     9   ar
    10     9    10   ar
    11    10    11    2
    12    10    12   ar
    13    12    13   ar
    14     3     4    1
    15     4     5    1
    16     5     6    1
    17     6     1    1
    18    13     8   ar
    19    12    14    1
    20     6     7    1
