@<TRIPOS>MOLECULE
*****
 34 38 0 0 0
SMALL
GASTEIGER

@<TRIPOS>ATOM
      1 N         142.5778  142.4541  168.1881 N.3     1  UNL1       -0.2713
      2 C         141.1372  142.8165  168.3969 C.3     1  UNL1        0.0768
      3 C         140.1233  143.2447  167.3776 C.3     1  UNL1        0.0433
      4 C         140.2996  143.4161  165.8980 C.ar    1  UNL1       -0.0247
      5 C         139.0260  143.8612  165.2424 C.ar    1  UNL1       -0.0045
      6 C         138.9861  144.0920  163.7608 C.ar    1  UNL1        0.0011
      7 C         140.2197  143.8777  162.9347 C.ar    1  UNL1        0.0170
      8 C         141.4933  143.4326  163.5904 C.ar    1  UNL1       -0.0030
      9 C         141.5332  143.2018  165.0720 C.ar    1  UNL1       -0.0246
     10 C         142.8953  142.7631  165.5218 C.3     1  UNL1        0.0433
     11 C         143.3601  142.4304  166.9086 C.3     1  UNL1        0.0768
     12 C         140.1797  144.1085  161.4532 C.ar    1  UNL1        0.0791
     13 C         141.0194  145.0902  160.6908 C.ar    1  UNL1        0.0352
     14 C         140.6517  144.9865  159.2403 C.ar    1  UNL1        0.0804
     15 C         141.2466  145.7879  158.1205 C.3     1  UNL1        0.0540
     16 N         139.5848  143.9408  159.1062 N.ar    1  UNL1       -0.1736
     17 N         139.2930  143.3981  160.4738 N.ar    1  UNL1       -0.2492
     18 C         138.2906  142.3322  160.8040 C.3     1  UNL1        0.1537
     19 C         143.3361  142.0639  169.4221 C.3     1  UNL1        0.0843
     20 C         142.8328  140.9494  170.2907 C.3     1  UNL1        0.0824
     21 S         142.4015  139.6526  169.6720 S.3     1  UNL1       -0.0742
     22 C         139.6746  139.4041  166.9211 C.ar    1  UNL1        0.1862
     23 N         138.8342  139.6310  168.1426 N.ar    1  UNL1       -0.1266
     24 N         139.7533  139.7518  169.3219 N.ar    1  UNL1       -0.1221
     25 C         141.1619  139.5995  168.8291 C.ar    1  UNL1        0.1933
     26 N         141.1133  139.3846  167.3454 N.ar    1  UNL1       -0.2872
     27 C         142.2956  139.1853  166.4441 C.3     1  UNL1        0.1340
     28 C         137.6394  138.6985  161.3211 C.3     1  UNL1        0.0538
     29 C         138.1482  138.8749  162.7211 C.ar    1  UNL1        0.0785
     30 C         138.9544  137.7882  163.3687 C.ar    1  UNL1        0.1136
     31 N         139.4632  137.9647  164.7687 N.ar    1  UNL1       -0.2379
     32 C         139.1658  139.2277  165.5211 C.ar    1  UNL1        0.1362
     33 C         138.3596  140.3144  164.8736 C.ar    1  UNL1        0.1206
     34 N         137.8508  140.1380  163.4736 N.ar    1  UNL1       -0.2449
@<TRIPOS>BOND
     1    28    29    1
     2    29    30   ar
     3    30    31   ar
     4    31    32   ar
     5    32    22    1
     6    22    23   ar
     7    23    24   ar
     8    24    25   ar
     9    25    21    1
    10    21    20    1
    11    20    19    1
    12    19     1    1
    13     1     2    1
    14     2     3    1
    15     3     4    1
    16     4     5   ar
    17     5     6   ar
    18     6     7   ar
    19     7    12    1
    20    12    13   ar
    21    13    14   ar
    22    14    15    1
    23    14    16   ar
    24    16    17   ar
    25    17    18    1
    26     7     8   ar
    27     8     9   ar
    28     9    10    1
    29    10    11    1
    30    25    26   ar
    31    26    27    1
    32    32    33   ar
    33    33    34   ar
    34    34    29   ar
    35    26    22   ar
    36    11     1    1
    37     9     4   ar
    38    17    12   ar
@<TRIPOS>MOLECULE
*****
 34 38 0 0 0
SMALL
GASTEIGER

@<TRIPOS>ATOM
      1 N         138.2548  140.2139  159.6601 N.3     1  UNL1       -0.2713
      2 C         138.9424  138.8926  159.8381 C.3     1  UNL1        0.0768
      3 C         139.3748  138.2274  161.1112 C.3     1  UNL1        0.0433
      4 C         139.2264  138.7191  162.5204 C.ar    1  UNL1       -0.0247
      5 C         139.7972  137.7417  163.5048 C.ar    1  UNL1       -0.0045
      6 C         139.7506  138.0427  164.9736 C.ar    1  UNL1        0.0011
      7 C         139.1333  139.3211  165.4580 C.ar    1  UNL1        0.0170
      8 C         138.5625  140.2985  164.4736 C.ar    1  UNL1       -0.0030
      9 C         138.6091  139.9975  163.0049 C.ar    1  UNL1       -0.0246
     10 C         137.9876  141.0999  162.1996 C.3     1  UNL1        0.0433
     11 C         137.8300  141.1961  160.7110 C.3     1  UNL1        0.0768
     12 C         139.0867  139.6220  166.9268 C.ar    1  UNL1        0.0791
     13 C         139.9847  140.5731  167.6608 C.ar    1  UNL1        0.0352
     14 C         139.5869  140.5637  169.1070 C.ar    1  UNL1        0.0804
     15 C         140.2216  141.3697  170.2013 C.3     1  UNL1        0.0540
     16 N         138.4429  139.6067  169.2668 N.ar    1  UNL1       -0.1736
     17 N         138.1337  139.0247  167.9194 N.ar    1  UNL1       -0.2492
     18 C         137.0601  138.0216  167.6175 C.3     1  UNL1        0.1537
     19 C         137.9523  140.6043  158.2437 C.3     1  UNL1        0.0843
     20 C         139.0713  140.8005  157.2644 C.3     1  UNL1        0.0824
     21 S         139.7548  142.1320  157.1634 S.3     1  UNL1       -0.0742
     22 C         141.0771  143.5865  160.5102 C.ar    1  UNL1        0.1862
     23 N         140.0529  144.6150  160.1317 N.ar    1  UNL1       -0.1266
     24 N         139.4329  144.1953  158.8320 N.ar    1  UNL1       -0.1221
     25 C         140.0739  142.9074  158.4071 C.ar    1  UNL1        0.1933
     26 N         141.0901  142.5312  159.4443 N.ar    1  UNL1       -0.2872
     27 C         141.9656  141.3134  159.4199 C.3     1  UNL1        0.1340
     28 C         144.5179  143.6778  165.4247 C.3     1  UNL1        0.0538
     29 C         143.6577  143.6550  164.1961 C.ar    1  UNL1        0.0785
     30 C         144.1533  144.2723  162.9220 C.ar    1  UNL1        0.1136
     31 N         143.2930  144.2495  161.6934 N.ar    1  UNL1       -0.2379
     32 C         141.9373  143.6093  161.7389 C.ar    1  UNL1        0.1362
     33 C         141.4417  142.9920  163.0129 C.ar    1  UNL1        0.1206
     34 N         142.3019  143.0148  164.2415 N.ar    1  UNL1       -0.2449
@<TRIPOS>BOND
     1    28    29    1
     2    29    30   ar
     3    30    31   ar
     4    31    32   ar
     5    32    22    1
     6    22    23   ar
     7    23    24   ar
     8    24    25   ar
     9    25    21    1
    10    21    20    1
    11    20    19    1
    12    19     1    1
    13     1     2    1
    14     2     3    1
    15     3     4    1
    16     4     5   ar
    17     5     6   ar
    18     6     7   ar
    19     7    12    1
    20    12    13   ar
    21    13    14   ar
    22    14    15    1
    23    14    16   ar
    24    16    17   ar
    25    17    18    1
    26     7     8   ar
    27     8     9   ar
    28     9    10    1
    29    10    11    1
    30    25    26   ar
    31    26    27    1
    32    32    33   ar
    33    33    34   ar
    34    34    29   ar
    35    26    22   ar
    36    11     1    1
    37     9     4   ar
    38    17    12   ar
@<TRIPOS>MOLECULE
*****
 34 38 0 0 0
SMALL
GASTEIGER

@<TRIPOS>ATOM
      1 N         143.6233  140.2345  159.8300 N.3     1  UNL1       -0.2713
      2 C         142.9848  138.8781  159.8818 C.3     1  UNL1        0.0768
      3 C         142.3977  138.1654  161.0640 C.3     1  UNL1        0.0433
      4 C         142.3039  138.6331  162.4860 C.ar    1  UNL1       -0.0247
      5 C         141.6402  137.6082  163.3574 C.ar    1  UNL1       -0.0045
      6 C         141.4467  137.8793  164.8199 C.ar    1  UNL1        0.0011
      7 C         141.9169  139.1751  165.4113 C.ar    1  UNL1        0.0170
      8 C         142.5807  140.2000  164.5400 C.ar    1  UNL1       -0.0030
      9 C         142.7742  139.9290  163.0774 C.ar    1  UNL1       -0.0246
     10 C         143.4544  141.0772  162.3926 C.3     1  UNL1        0.0433
     11 C         143.8322  141.2131  160.9473 C.3     1  UNL1        0.0768
     12 C         141.7234  139.4461  166.8738 C.ar    1  UNL1        0.0791
     13 C         142.7980  139.4455  167.9204 C.ar    1  UNL1        0.0352
     14 C         142.1601  139.7643  169.2400 C.ar    1  UNL1        0.0804
     15 C         142.8669  139.8674  170.5589 C.3     1  UNL1        0.0540
     16 N         140.6912  139.9620  169.0090 N.ar    1  UNL1       -0.1736
     17 N         140.4213  139.7654  167.5467 N.ar    1  UNL1       -0.2492
     18 C         139.0841  139.8696  166.8751 C.3     1  UNL1        0.1537
     19 C         144.1182  140.6697  158.4825 C.3     1  UNL1        0.0843
     20 C         143.1785  140.7053  157.3140 C.3     1  UNL1        0.0824
     21 S         142.1604  141.8015  157.2033 S.3     1  UNL1       -0.0742
     22 C         141.2623  143.8653  160.3655 C.ar    1  UNL1        0.1862
     23 N         142.2539  144.7724  159.6993 N.ar    1  UNL1       -0.1266
     24 N         142.7111  144.1098  158.4337 N.ar    1  UNL1       -0.1221
     25 C         142.0020  142.7930  158.3176 C.ar    1  UNL1        0.1933
     26 N         141.1066  142.6420  159.5115 N.ar    1  UNL1       -0.2872
     27 C         140.2125  141.4728  159.8008 C.3     1  UNL1        0.1340
     28 C         138.4179  144.9412  165.5377 C.3     1  UNL1        0.0538
     29 C         139.1290  144.6723  164.2446 C.ar    1  UNL1        0.0785
     30 C         138.3480  144.5562  162.9692 C.ar    1  UNL1        0.1136
     31 N         139.0592  144.2872  161.6762 N.ar    1  UNL1       -0.2379
     32 C         140.5512  144.1343  161.6586 C.ar    1  UNL1        0.1362
     33 C         141.3322  144.2504  162.9339 C.ar    1  UNL1        0.1206
     34 N         140.6211  144.5193  164.2269 N.ar    1  UNL1       -0.2449
@<TRIPOS>BOND
     1    28    29    1
     2    29    30   ar
     3    30    31   ar
     4    31    32   ar
     5    32    22    1
     6    22    23   ar
     7    23    24   ar
     8    24    25   ar
     9    25    21    1
    10    21    20    1
    11    20    19    1
    12    19     1    1
    13     1     2    1
    14     2     3    1
    15     3     4    1
    16     4     5   ar
    17     5     6   ar
    18     6     7   ar
    19     7    12    1
    20    12    13   ar
    21    13    14   ar
    22    14    15    1
    23    14    16   ar
    24    16    17   ar
    25    17    18    1
    26     7     8   ar
    27     8     9   ar
    28     9    10    1
    29    10    11    1
    30    25    26   ar
    31    26    27    1
    32    32    33   ar
    33    33    34   ar
    34    34    29   ar
    35    26    22   ar
    36    11     1    1
    37     9     4   ar
    38    17    12   ar
@<TRIPOS>MOLECULE
*****
 34 38 0 0 0
SMALL
GASTEIGER

@<TRIPOS>ATOM
      1 N         141.5016  144.5583  161.6924 N.3     1  UNL1       -0.2713
      2 C         142.8673  144.0712  162.0770 C.3     1  UNL1        0.0768
      3 C         143.2970  143.3985  163.3470 C.3     1  UNL1        0.0433
      4 C         142.4673  143.0469  164.5460 C.ar    1  UNL1       -0.0247
      5 C         143.2917  142.3786  165.6061 C.ar    1  UNL1       -0.0045
      6 C         142.6518  141.9443  166.8914 C.ar    1  UNL1        0.0011
      7 C         141.1874  142.1784  167.1167 C.ar    1  UNL1        0.0170
      8 C         140.3629  142.8467  166.0566 C.ar    1  UNL1       -0.0030
      9 C         141.0028  143.2809  164.7713 C.ar    1  UNL1       -0.0246
     10 C         140.0065  143.9245  163.8531 C.3     1  UNL1        0.0433
     11 C         140.2286  144.4929  162.4828 C.3     1  UNL1        0.0768
     12 C         140.5474  141.7442  168.4019 C.ar    1  UNL1        0.0791
     13 C         139.4598  140.7210  168.5437 C.ar    1  UNL1        0.0352
     14 C         139.1230  140.6014  170.0005 C.ar    1  UNL1        0.0804
     15 C         138.0883  139.6921  170.5944 C.3     1  UNL1        0.0540
     16 N         140.0024  141.5507  170.7591 N.ar    1  UNL1       -0.1736
     17 N         140.8828  142.2570  169.7711 N.ar    1  UNL1       -0.2492
     18 C         141.9170  143.2940  170.0954 C.3     1  UNL1        0.1537
     19 C         141.3952  145.1948  160.3383 C.3     1  UNL1        0.0843
     20 C         141.7309  144.4034  159.1091 C.3     1  UNL1        0.0824
     21 S         140.8248  143.2957  158.6595 S.3     1  UNL1       -0.0742
     22 C         138.9623  141.2619  161.3908 C.ar    1  UNL1        0.1862
     23 N         137.8532  142.1234  160.8641 N.ar    1  UNL1       -0.1266
     24 N         138.4158  142.9902  159.7768 N.ar    1  UNL1       -0.1221
     25 C         139.8727  142.6644  159.6315 C.ar    1  UNL1        0.1933
     26 N         140.2105  141.5962  160.6290 N.ar    1  UNL1       -0.2872
     27 C         141.5596  140.9719  160.8296 C.3     1  UNL1        0.1340
     28 C         138.4894  137.1930  165.7749 C.3     1  UNL1        0.0538
     29 C         138.6077  138.2102  164.6788 C.ar    1  UNL1        0.0785
     30 C         138.4603  139.6699  164.9913 C.ar    1  UNL1        0.1136
     31 N         138.5785  140.6871  163.8952 N.ar    1  UNL1       -0.2379
     32 C         138.8441  140.2446  162.4868 C.ar    1  UNL1        0.1362
     33 C         138.9915  138.7850  162.1743 C.ar    1  UNL1        0.1206
     34 N         138.8732  137.7678  163.2704 N.ar    1  UNL1       -0.2449
@<TRIPOS>BOND
     1    28    29    1
     2    29    30   ar
     3    30    31   ar
     4    31    32   ar
     5    32    22    1
     6    22    23   ar
     7    23    24   ar
     8    24    25   ar
     9    25    21    1
    10    21    20    1
    11    20    19    1
    12    19     1    1
    13     1     2    1
    14     2     3    1
    15     3     4    1
    16     4     5   ar
    17     5     6   ar
    18     6     7   ar
    19     7    12    1
    20    12    13   ar
    21    13    14   ar
    22    14    15    1
    23    14    16   ar
    24    16    17   ar
    25    17    18    1
    26     7     8   ar
    27     8     9   ar
    28     9    10    1
    29    10    11    1
    30    25    26   ar
    31    26    27    1
    32    32    33   ar
    33    33    34   ar
    34    34    29   ar
    35    26    22   ar
    36    11     1    1
    37     9     4   ar
    38    17    12   ar
@<TRIPOS>MOLECULE
*****
 34 38 0 0 0
SMALL
GASTEIGER

@<TRIPOS>ATOM
      1 N         139.4224  139.1177  159.3094 N.3     1  UNL1       -0.2713
      2 C         138.5337  140.3197  159.4332 C.3     1  UNL1        0.0768
      3 C         138.1112  141.0465  160.6756 C.3     1  UNL1        0.0433
      4 C         138.4730  140.7507  162.1008 C.ar    1  UNL1       -0.0247
      5 C         137.8335  141.7275  163.0426 C.ar    1  UNL1       -0.0045
      6 C         138.0678  141.6088  164.5194 C.ar    1  UNL1        0.0011
      7 C         138.9415  140.5132  165.0546 C.ar    1  UNL1        0.0170
      8 C         139.5810  139.5364  164.1127 C.ar    1  UNL1       -0.0030
      9 C         139.3468  139.6551  162.6359 C.ar    1  UNL1       -0.0246
     10 C         140.0744  138.5847  161.8778 C.3     1  UNL1        0.0433
     11 C         140.1081  138.3456  160.3974 C.3     1  UNL1        0.0768
     12 C         139.1758  140.3944  166.5314 C.ar    1  UNL1        0.0791
     13 C         140.0849  141.2601  167.3523 C.ar    1  UNL1        0.0352
     14 C         140.0130  140.7898  168.7748 C.ar    1  UNL1        0.0804
     15 C         140.7631  141.3735  169.9353 C.3     1  UNL1        0.0540
     16 N         139.0595  139.6334  168.8331 N.ar    1  UNL1       -0.1736
     17 N         138.5420  139.3890  167.4466 N.ar    1  UNL1       -0.2492
     18 C         137.5627  138.3259  167.0456 C.3     1  UNL1        0.1537
     19 C         139.6564  138.6223  157.9130 C.3     1  UNL1        0.0843
     20 C         140.3207  139.5108  156.9035 C.3     1  UNL1        0.0824
     21 S         141.8093  139.6937  156.9297 S.3     1  UNL1       -0.0742
     22 C         143.4165  140.2825  160.4133 C.ar    1  UNL1        0.1862
     23 N         143.9456  138.9200  160.0765 N.ar    1  UNL1       -0.1266
     24 N         143.4080  138.5335  158.7306 N.ar    1  UNL1       -0.1221
     25 C         142.5466  139.6572  158.2355 C.ar    1  UNL1        0.1933
     26 N         142.5518  140.7382  159.2754 N.ar    1  UNL1       -0.2872
     27 C         141.8208  142.0453  159.1922 C.3     1  UNL1        0.1340
     28 C         144.5582  143.3684  165.4307 C.3     1  UNL1        0.0538
     29 C         144.2728  142.5969  164.1763 C.ar    1  UNL1        0.0785
     30 C         145.3973  142.2062  163.2638 C.ar    1  UNL1        0.1136
     31 N         145.1119  141.4348  162.0095 N.ar    1  UNL1       -0.2379
     32 C         143.7019  141.0540  161.6677 C.ar    1  UNL1        0.1362
     33 C         142.5773  141.4446  162.5801 C.ar    1  UNL1        0.1206
     34 N         142.8627  142.2161  163.8344 N.ar    1  UNL1       -0.2449
@<TRIPOS>BOND
     1    28    29    1
     2    29    30   ar
     3    30    31   ar
     4    31    32   ar
     5    32    22    1
     6    22    23   ar
     7    23    24   ar
     8    24    25   ar
     9    25    21    1
    10    21    20    1
    11    20    19    1
    12    19     1    1
    13     1     2    1
    14     2     3    1
    15     3     4    1
    16     4     5   ar
    17     5     6   ar
    18     6     7   ar
    19     7    12    1
    20    12    13   ar
    21    13    14   ar
    22    14    15    1
    23    14    16   ar
    24    16    17   ar
    25    17    18    1
    26     7     8   ar
    27     8     9   ar
    28     9    10    1
    29    10    11    1
    30    25    26   ar
    31    26    27    1
    32    32    33   ar
    33    33    34   ar
    34    34    29   ar
    35    26    22   ar
    36    11     1    1
    37     9     4   ar
    38    17    12   ar
@<TRIPOS>MOLECULE
*****
 34 38 0 0 0
SMALL
GASTEIGER

@<TRIPOS>ATOM
      1 N         142.8415  138.2350  161.8678 N.3     1  UNL1       -0.2713
      2 C         143.7949  139.3904  161.9471 C.3     1  UNL1        0.0768
      3 C         143.9786  140.3764  163.0626 C.3     1  UNL1        0.0433
      4 C         143.2544  140.4505  164.3740 C.ar    1  UNL1       -0.0247
      5 C         143.7462  141.5965  165.2076 C.ar    1  UNL1       -0.0045
      6 C         143.1512  141.8490  166.5612 C.ar    1  UNL1        0.0011
      7 C         142.0644  140.9554  167.0813 C.ar    1  UNL1        0.0170
      8 C         141.5726  139.8094  166.2477 C.ar    1  UNL1       -0.0030
      9 C         142.1676  139.5569  164.8941 C.ar    1  UNL1       -0.0246
     10 C         141.5366  138.3686  164.2311 C.3     1  UNL1        0.0433
     11 C         141.8366  137.7803  162.8842 C.3     1  UNL1        0.0768
     12 C         141.4694  141.2079  168.4349 C.ar    1  UNL1        0.0791
     13 C         140.6210  142.3834  168.8197 C.ar    1  UNL1        0.0352
     14 C         140.2456  142.2311  170.2640 C.ar    1  UNL1        0.0804
     15 C         139.4019  143.1817  171.0606 C.3     1  UNL1        0.0540
     16 N         140.8621  140.9614  170.7718 N.ar    1  UNL1       -0.1736
     17 N         141.6185  140.3290  169.6413 N.ar    1  UNL1       -0.2492
     18 C         142.3887  139.0434  169.7060 C.3     1  UNL1        0.1537
     19 C         142.9012  137.4276  160.6050 C.3     1  UNL1        0.0843
     20 C         142.7747  138.1071  159.2738 C.3     1  UNL1        0.0824
     21 S         141.4814  138.7599  158.8847 S.3     1  UNL1       -0.0742
     22 C         139.3976  140.5100  161.6524 C.ar    1  UNL1        0.1862
     23 N         138.6467  139.2210  161.4957 N.ar    1  UNL1       -0.1266
     24 N         139.3359  138.4085  160.4399 N.ar    1  UNL1       -0.1221
     25 C         140.5128  139.1954  159.9440 C.ar    1  UNL1        0.1933
     26 N         140.5509  140.4942  160.6934 N.ar    1  UNL1       -0.2872
     27 C         141.5643  141.5856  160.5151 C.3     1  UNL1        0.1340
     28 C         138.0284  144.9500  165.4487 C.3     1  UNL1        0.0538
     29 C         138.3707  143.8400  164.4996 C.ar    1  UNL1        0.0785
     30 C         139.4768  142.8830  164.8324 C.ar    1  UNL1        0.1136
     31 N         139.8190  141.7730  163.8833 N.ar    1  UNL1       -0.2379
     32 C         139.0553  141.6201  162.6015 C.ar    1  UNL1        0.1362
     33 C         137.9492  142.5770  162.2686 C.ar    1  UNL1        0.1206
     34 N         137.6070  143.6870  163.2178 N.ar    1  UNL1       -0.2449
@<TRIPOS>BOND
     1    28    29    1
     2    29    30   ar
     3    30    31   ar
     4    31    32   ar
     5    32    22    1
     6    22    23   ar
     7    23    24   ar
     8    24    25   ar
     9    25    21    1
    10    21    20    1
    11    20    19    1
    12    19     1    1
    13     1     2    1
    14     2     3    1
    15     3     4    1
    16     4     5   ar
    17     5     6   ar
    18     6     7   ar
    19     7    12    1
    20    12    13   ar
    21    13    14   ar
    22    14    15    1
    23    14    16   ar
    24    16    17   ar
    25    17    18    1
    26     7     8   ar
    27     8     9   ar
    28     9    10    1
    29    10    11    1
    30    25    26   ar
    31    26    27    1
    32    32    33   ar
    33    33    34   ar
    34    34    29   ar
    35    26    22   ar
    36    11     1    1
    37     9     4   ar
    38    17    12   ar
@<TRIPOS>MOLECULE
*****
 34 38 0 0 0
SMALL
GASTEIGER

@<TRIPOS>ATOM
      1 N         142.0625  138.5889  159.4168 N.3     1  UNL1       -0.2713
      2 C         143.4175  139.2223  159.5308 C.3     1  UNL1        0.0768
      3 C         144.1143  139.7251  160.7604 C.3     1  UNL1        0.0433
      4 C         143.6282  139.7188  162.1793 C.ar    1  UNL1       -0.0247
      5 C         144.6411  140.3198  163.1083 C.ar    1  UNL1       -0.0045
      6 C         144.3511  140.4102  164.5772 C.ar    1  UNL1        0.0011
      7 C         143.0482  139.8995  165.1173 C.ar    1  UNL1        0.0170
      8 C         142.0353  139.2984  164.1883 C.ar    1  UNL1       -0.0030
      9 C         142.3253  139.2081  162.7194 C.ar    1  UNL1       -0.0246
     10 C         141.1867  138.5775  161.9738 C.3     1  UNL1        0.0433
     11 C         141.0698  138.3020  160.5039 C.3     1  UNL1        0.0768
     12 C         142.7582  139.9898  166.5862 C.ar    1  UNL1        0.0791
     13 C         142.9819  138.9048  167.5974 C.ar    1  UNL1        0.0352
     14 C         142.5555  139.4254  168.9380 C.ar    1  UNL1        0.0804
     15 C         142.6072  138.6716  170.2337 C.3     1  UNL1        0.0540
     16 N         142.0682  140.8323  168.7552 N.ar    1  UNL1       -0.1736
     17 N         142.1935  141.1811  167.3018 N.ar    1  UNL1       -0.2492
     18 C         141.8197  142.4912  166.6741 C.3     1  UNL1        0.1537
     19 C         141.6452  138.1898  158.0324 C.3     1  UNL1        0.0843
     20 C         141.5598  139.2224  156.9478 C.3     1  UNL1        0.0824
     21 S         140.3682  140.1302  156.8687 S.3     1  UNL1       -0.0742
     22 C         138.8771  141.4050  160.2178 C.ar    1  UNL1        0.1862
     23 N         137.8349  140.4123  159.7957 N.ar    1  UNL1       -0.1266
     24 N         138.2665  139.8139  158.4897 N.ar    1  UNL1       -0.1221
     25 C         139.5756  140.4368  158.1047 C.ar    1  UNL1        0.1933
     26 N         139.9530  141.4202  159.1727 N.ar    1  UNL1       -0.2872
     27 C         141.1892  142.2695  159.1922 C.3     1  UNL1        0.1340
     28 C         138.7629  144.7313  165.2101 C.3     1  UNL1        0.0538
     29 C         138.7914  143.8997  163.9620 C.ar    1  UNL1        0.0785
     30 C         137.7395  144.0900  162.9097 C.ar    1  UNL1        0.1136
     31 N         137.7681  143.2584  161.6617 N.ar    1  UNL1       -0.2379
     32 C         138.8486  142.2366  161.4659 C.ar    1  UNL1        0.1362
     33 C         139.9006  142.0463  162.5181 C.ar    1  UNL1        0.1206
     34 N         139.8719  142.8779  163.7661 N.ar    1  UNL1       -0.2449
@<TRIPOS>BOND
     1    28    29    1
     2    29    30   ar
     3    30    31   ar
     4    31    32   ar
     5    32    22    1
     6    22    23   ar
     7    23    24   ar
     8    24    25   ar
     9    25    21    1
    10    21    20    1
    11    20    19    1
    12    19     1    1
    13     1     2    1
    14     2     3    1
    15     3     4    1
    16     4     5   ar
    17     5     6   ar
    18     6     7   ar
    19     7    12    1
    20    12    13   ar
    21    13    14   ar
    22    14    15    1
    23    14    16   ar
    24    16    17   ar
    25    17    18    1
    26     7     8   ar
    27     8     9   ar
    28     9    10    1
    29    10    11    1
    30    25    26   ar
    31    26    27    1
    32    32    33   ar
    33    33    34   ar
    34    34    29   ar
    35    26    22   ar
    36    11     1    1
    37     9     4   ar
    38    17    12   ar
@<TRIPOS>MOLECULE
*****
 34 38 0 0 0
SMALL
GASTEIGER

@<TRIPOS>ATOM
      1 N         140.0923  142.0151  168.6403 N.3     1  UNL1       -0.2713
      2 C         139.6052  140.5965  168.6603 C.3     1  UNL1        0.0768
      3 C         139.1682  139.7414  167.5078 C.3     1  UNL1        0.0433
      4 C         139.1104  140.0937  166.0511 C.ar    1  UNL1       -0.0247
      5 C         138.6119  138.9427  165.2283 C.ar    1  UNL1       -0.0045
      6 C         138.4784  139.0862  163.7411 C.ar    1  UNL1        0.0011
      7 C         138.8433  140.3806  163.0767 C.ar    1  UNL1        0.0170
      8 C         139.3418  141.5315  163.8995 C.ar    1  UNL1       -0.0030
      9 C         139.4754  141.3881  165.3866 C.ar    1  UNL1       -0.0246
     10 C         139.9882  142.6498  166.0150 C.3     1  UNL1        0.0433
     11 C         140.2628  142.9288  167.4631 C.3     1  UNL1        0.0768
     12 C         138.7098  140.5240  161.5896 C.ar    1  UNL1        0.0791
     13 C         138.3451  141.7794  160.8541 C.ar    1  UNL1        0.0352
     14 C         138.3274  141.4686  159.3868 C.ar    1  UNL1        0.0804
     15 C         138.0115  142.4355  158.2845 C.3     1  UNL1        0.0540
     16 N         138.6812  140.0210  159.2154 N.ar    1  UNL1       -0.1736
     17 N         138.9175  139.4372  160.5767 N.ar    1  UNL1       -0.2492
     18 C         139.2952  138.0161  160.8733 C.3     1  UNL1        0.1537
     19 C         140.4572  142.5967  169.9739 C.3     1  UNL1        0.0843
     20 C         141.8126  143.2047  170.1815 C.3     1  UNL1        0.0824
     21 S         143.0433  142.3579  170.0454 S.3     1  UNL1       -0.0742
     22 C         143.1433  139.8112  167.1180 C.ar    1  UNL1        0.1862
     23 N         142.9341  138.8981  168.2895 N.ar    1  UNL1       -0.1266
     24 N         142.8711  139.7409  169.5287 N.ar    1  UNL1       -0.1221
     25 C         143.0415  141.1750  169.1231 C.ar    1  UNL1        0.1933
     26 N         143.2097  141.2184  167.6331 N.ar    1  UNL1       -0.2872
     27 C         143.4092  142.4523  166.8040 C.3     1  UNL1        0.1340
     28 C         143.6293  138.1302  161.3788 C.3     1  UNL1        0.0538
     29 C         143.5078  138.5504  162.8136 C.ar    1  UNL1        0.0785
     30 C         144.5566  139.4285  163.4294 C.ar    1  UNL1        0.1136
     31 N         144.4350  139.8487  164.8642 N.ar    1  UNL1       -0.2379
     32 C         143.2648  139.3909  165.6831 C.ar    1  UNL1        0.1362
     33 C         142.2160  138.5129  165.0675 C.ar    1  UNL1        0.1206
     34 N         142.3375  138.0927  163.6327 N.ar    1  UNL1       -0.2449
@<TRIPOS>BOND
     1    28    29    1
     2    29    30   ar
     3    30    31   ar
     4    31    32   ar
     5    32    22    1
     6    22    23   ar
     7    23    24   ar
     8    24    25   ar
     9    25    21    1
    10    21    20    1
    11    20    19    1
    12    19     1    1
    13     1     2    1
    14     2     3    1
    15     3     4    1
    16     4     5   ar
    17     5     6   ar
    18     6     7   ar
    19     7    12    1
    20    12    13   ar
    21    13    14   ar
    22    14    15    1
    23    14    16   ar
    24    16    17   ar
    25    17    18    1
    26     7     8   ar
    27     8     9   ar
    28     9    10    1
    29    10    11    1
    30    25    26   ar
    31    26    27    1
    32    32    33   ar
    33    33    34   ar
    34    34    29   ar
    35    26    22   ar
    36    11     1    1
    37     9     4   ar
    38    17    12   ar
@<TRIPOS>MOLECULE
*****
 34 38 0 0 0
SMALL
GASTEIGER

@<TRIPOS>ATOM
      1 N         141.1816  145.0769  160.2559 N.3     1  UNL1       -0.2713
      2 C         140.0197  145.7243  160.9495 C.3     1  UNL1        0.0768
      3 C         139.5222  145.5011  162.3469 C.3     1  UNL1        0.0433
      4 C         140.0635  144.5755  163.3956 C.ar    1  UNL1       -0.0247
      5 C         139.2670  144.6587  164.6640 C.ar    1  UNL1       -0.0045
      6 C         139.6431  143.8109  165.8429 C.ar    1  UNL1        0.0011
      7 C         140.8158  142.8798  165.7535 C.ar    1  UNL1        0.0170
      8 C         141.6124  142.7966  164.4851 C.ar    1  UNL1       -0.0030
      9 C         141.2362  143.6444  163.3063 C.ar    1  UNL1       -0.0246
     10 C         142.1571  143.4090  162.1459 C.3     1  UNL1        0.0433
     11 C         142.1328  144.0466  160.7883 C.3     1  UNL1        0.0768
     12 C         141.1919  142.0320  166.9323 C.ar    1  UNL1        0.0791
     13 C         142.3098  142.3056  167.8943 C.ar    1  UNL1        0.0352
     14 C         142.3250  141.2044  168.9127 C.ar    1  UNL1        0.0804
     15 C         143.2809  141.0794  170.0619 C.3     1  UNL1        0.0540
     16 N         141.2165  140.2502  168.5801 N.ar    1  UNL1       -0.1736
     17 N         140.5162  140.7616  167.3562 N.ar    1  UNL1       -0.2492
     18 C         139.3457  140.1161  166.6756 C.3     1  UNL1        0.1537
     19 C         141.4243  145.5184  158.8430 C.3     1  UNL1        0.0843
     20 C         140.3794  145.2815  157.7932 C.3     1  UNL1        0.0824
     21 S         140.2445  143.9276  157.1615 S.3     1  UNL1       -0.0742
     22 C         140.6039  140.8880  159.5483 C.ar    1  UNL1        0.1862
     23 N         141.8232  140.7279  158.6894 N.ar    1  UNL1       -0.1266
     24 N         141.8370  141.8470  157.6908 N.ar    1  UNL1       -0.1221
     25 C         140.6262  142.6989  157.9324 C.ar    1  UNL1        0.1933
     26 N         139.8640  142.1061  159.0804 N.ar    1  UNL1       -0.2872
     27 C         138.5865  142.6381  159.6590 C.3     1  UNL1        0.1340
     28 C         138.9722  137.2881  164.0625 C.3     1  UNL1        0.0538
     29 C         139.3802  138.1881  162.9339 C.ar    1  UNL1        0.0785
     30 C         140.4270  139.2396  163.1540 C.ar    1  UNL1        0.1136
     31 N         140.8349  140.1395  162.0254 N.ar    1  UNL1       -0.2379
     32 C         140.1960  139.9880  160.6769 C.ar    1  UNL1        0.1362
     33 C         139.1491  138.9365  160.4567 C.ar    1  UNL1        0.1206
     34 N         138.7412  138.0366  161.5853 N.ar    1  UNL1       -0.2449
@<TRIPOS>BOND
     1    28    29    1
     2    29    30   ar
     3    30    31   ar
     4    31    32   ar
     5    32    22    1
     6    22    23   ar
     7    23    24   ar
     8    24    25   ar
     9    25    21    1
    10    21    20    1
    11    20    19    1
    12    19     1    1
    13     1     2    1
    14     2     3    1
    15     3     4    1
    16     4     5   ar
    17     5     6   ar
    18     6     7   ar
    19     7    12    1
    20    12    13   ar
    21    13    14   ar
    22    14    15    1
    23    14    16   ar
    24    16    17   ar
    25    17    18    1
    26     7     8   ar
    27     8     9   ar
    28     9    10    1
    29    10    11    1
    30    25    26   ar
    31    26    27    1
    32    32    33   ar
    33    33    34   ar
    34    34    29   ar
    35    26    22   ar
    36    11     1    1
    37     9     4   ar
    38    17    12   ar
