@<TRIPOS>MOLECULE
*****
 41 44 0 0 0
SMALL
GASTEIGER

@<TRIPOS>ATOM
      1 C         139.5058  139.1357  160.4480 C.ar    1  UNL1        0.0597
      2 C         139.4775  138.2800  161.6796 C.ar    1  UNL1        0.0422
      3 C         138.7963  138.7747  162.9210 C.ar    1  UNL1        0.1485
      4 C         138.1432  140.1251  162.9307 C.ar    1  UNL1        0.0743
      5 C         138.1715  140.9808  161.6991 C.ar    1  UNL1        0.1416
      6 C         138.8528  140.4860  160.4577 C.ar    1  UNL1        0.0416
      7 N         141.6809  138.5092  159.1726 N.am    1  UNL1       -0.2644
      8 C         140.1871  138.6410  159.2065 C.2     1  UNL1        0.2508
      9 O         139.3746  138.2781  157.9990 O.2     1  UNL1       -0.2698
     10 H         142.2142  138.7474  159.9651 H       1  UNL1        0.1566
     11 N         143.3673  136.5499  156.2773 N.ar    1  UNL1       -0.2357
     12 C         143.4539  137.9568  155.7642 C.ar    1  UNL1        0.0988
     13 C         142.8327  138.8621  156.7864 C.ar    1  UNL1        0.0565
     14 C         142.3622  138.0145  157.9311 C.ar    1  UNL1        0.1557
     15 N         142.6926  136.5856  157.6165 N.ar    1  UNL1       -0.1534
     16 C         143.8676  135.3229  155.5745 C.3     1  UNL1        0.2423
     17 P         143.0975  134.0390  155.6672 P.3     1  UNL1        0.3677
     18 O         142.3275  132.7550  155.7598 O.2     1  UNL1       -0.2557
     19 O         141.8720  134.7371  155.1566 O.3     1  UNL1       -0.2928
     20 C         141.8412  134.5147  152.5683 C.3     1  UNL1        0.0352
     21 C         141.2041  134.2582  153.9018 C.3     1  UNL1        0.1515
     22 O         144.3231  133.3408  156.1778 O.3     1  UNL1       -0.2928
     23 C         144.3906  132.8940  157.6081 C.3     1  UNL1        0.1515
     24 C         145.1154  131.6303  157.9657 C.3     1  UNL1        0.0352
     25 O         138.7680  137.9191  164.1527 O.3     1  UNL1       -0.4518
     26 C         138.9485  138.5440  165.5043 C.ar    1  UNL1        0.1644
     27 C         140.1775  139.3522  165.7988 C.ar    1  UNL1        0.0408
     28 C         140.3580  139.9771  167.1504 C.ar    1  UNL1        0.0269
     29 C         139.3097  139.7938  168.2076 C.ar    1  UNL1        0.1349
     30 N         138.0809  138.9857  167.9131 N.ar    1  UNL1       -0.2361
     31 C         137.9003  138.3607  166.5615 C.ar    1  UNL1        0.1363
     32 C         139.4903  140.4188  169.5592 C.2     1  UNL1        0.2668
     33 O         139.2401  139.6113  170.7983 O.2     1  UNL1       -0.2683
     34 N         139.9211  141.8512  169.6717 N.am    1  UNL1       -0.2747
     35 C         140.2541  142.9386  168.6936 C.3     1  UNL1        0.0955
     36 C         140.5303  143.8769  169.8308 C.3     1  UNL1        0.0430
     37 C         140.1973  142.7895  170.8089 C.3     1  UNL1        0.0955
     38 O         137.5185  142.3311  161.7088 O.3     1  UNL1       -0.4791
     39 C         138.2283  143.5031  162.3191 C.3     1  UNL1        0.1661
     40 C         139.4590  144.0581  161.6654 C.3     1  UNL1        0.0472
     41 C         137.7075  144.1201  163.5833 C.3     1  UNL1        0.0472
@<TRIPOS>BOND
     1    20    21    1
     2    21    19    1
     3    19    17    1
     4    17    18    2
     5    17    16    1
     6    16    11    1
     7    11    12   ar
     8    12    13   ar
     9    13    14   ar
    10    14     7    1
    11     7     8   am
    12     8     9    2
    13     8     1    1
    14     1     2   ar
    15     2     3   ar
    16     3    25    1
    17    25    26    1
    18    26    27   ar
    19    27    28   ar
    20    28    29   ar
    21    29    32    1
    22    32    33    2
    23    32    34   am
    24    34    35    1
    25    35    36    1
    26    36    37    1
    27    29    30   ar
    28    30    31   ar
    29     3     4   ar
    30     4     5   ar
    31     5    38    1
    32    38    39    1
    33    39    40    1
    34    39    41    1
    35     5     6   ar
    36    14    15   ar
    37    17    22    1
    38    22    23    1
    39    23    24    1
    40    15    11   ar
    41     6     1   ar
    42    31    26   ar
    43    37    34    1
    44     7    10    1
@<TRIPOS>MOLECULE
*****
 41 44 0 0 0
SMALL
GASTEIGER

@<TRIPOS>ATOM
      1 C         139.5219  139.1898  160.2926 C.ar    1  UNL1        0.0597
      2 C         139.5648  138.3246  161.5171 C.ar    1  UNL1        0.0422
      3 C         138.9208  138.7920  162.7886 C.ar    1  UNL1        0.1485
      4 C         138.2339  140.1246  162.8356 C.ar    1  UNL1        0.0743
      5 C         138.1910  140.9899  161.6112 C.ar    1  UNL1        0.1416
      6 C         138.8350  140.5225  160.3396 C.ar    1  UNL1        0.0416
      7 N         141.6311  138.4025  158.9960 N.am    1  UNL1       -0.2644
      8 C         140.1659  138.7225  159.0210 C.2     1  UNL1        0.2508
      9 O         139.3446  138.5751  157.7745 O.2     1  UNL1       -0.2698
     10 H         142.1702  138.4992  159.8141 H       1  UNL1        0.1566
     11 N         143.0205  136.5197  155.8992 N.ar    1  UNL1       -0.2357
     12 C         143.5119  137.9123  155.6362 C.ar    1  UNL1        0.0988
     13 C         143.0513  138.7871  156.7644 C.ar    1  UNL1        0.0565
     14 C         142.2752  137.9351  157.7244 C.ar    1  UNL1        0.1557
     15 N         142.2561  136.5338  157.1897 N.ar    1  UNL1       -0.1534
     16 C         143.2526  135.3231  155.0250 C.3     1  UNL1        0.2423
     17 P         142.8946  133.9526  155.5188 P.3     1  UNL1        0.3677
     18 O         142.5366  132.5823  156.0125 O.2     1  UNL1       -0.2557
     19 O         144.0648  133.9848  156.4567 O.3     1  UNL1       -0.2928
     20 C         145.3332  132.1884  157.8401 C.3     1  UNL1        0.0352
     21 C         144.1187  133.0410  157.6213 C.3     1  UNL1        0.1515
     22 O         141.7244  133.9206  154.5809 O.3     1  UNL1       -0.2928
     23 C         141.8568  134.4837  153.1969 C.3     1  UNL1        0.1515
     24 C         140.6465  134.6108  152.3200 C.3     1  UNL1        0.0352
     25 O         138.9637  137.9267  164.0132 O.3     1  UNL1       -0.4518
     26 C         139.0711  138.5541  165.3715 C.ar    1  UNL1        0.1644
     27 C         137.9136  138.4853  166.3231 C.ar    1  UNL1        0.0408
     28 C         138.0210  139.1127  167.6813 C.ar    1  UNL1        0.0269
     29 C         139.2859  139.8090  168.0879 C.ar    1  UNL1        0.1349
     30 N         140.4433  139.8778  167.1364 N.ar    1  UNL1       -0.2361
     31 C         140.3359  139.2504  165.7781 C.ar    1  UNL1        0.1363
     32 C         139.3933  140.4364  169.4462 C.2     1  UNL1        0.2668
     33 O         139.0090  139.6535  170.6665 O.2     1  UNL1       -0.2683
     34 N         139.8851  141.8468  169.5840 N.am    1  UNL1       -0.2747
     35 C         140.3458  142.9076  168.6289 C.3     1  UNL1        0.0955
     36 C         140.5805  143.8414  169.7791 C.3     1  UNL1        0.0430
     37 C         140.1197  142.7806  170.7343 C.3     1  UNL1        0.0955
     38 O         137.5041  142.3225  161.6582 O.3     1  UNL1       -0.4791
     39 C         138.1771  143.4904  162.3161 C.3     1  UNL1        0.1661
     40 C         137.5941  144.0874  163.5626 C.3     1  UNL1        0.0472
     41 C         139.4332  144.0614  161.7276 C.3     1  UNL1        0.0472
@<TRIPOS>BOND
     1    20    21    1
     2    21    19    1
     3    19    17    1
     4    17    18    2
     5    17    16    1
     6    16    11    1
     7    11    12   ar
     8    12    13   ar
     9    13    14   ar
    10    14     7    1
    11     7     8   am
    12     8     9    2
    13     8     1    1
    14     1     2   ar
    15     2     3   ar
    16     3    25    1
    17    25    26    1
    18    26    27   ar
    19    27    28   ar
    20    28    29   ar
    21    29    32    1
    22    32    33    2
    23    32    34   am
    24    34    35    1
    25    35    36    1
    26    36    37    1
    27    29    30   ar
    28    30    31   ar
    29     3     4   ar
    30     4     5   ar
    31     5    38    1
    32    38    39    1
    33    39    40    1
    34    39    41    1
    35     5     6   ar
    36    14    15   ar
    37    17    22    1
    38    22    23    1
    39    23    24    1
    40    15    11   ar
    41     6     1   ar
    42    31    26   ar
    43    37    34    1
    44     7    10    1
@<TRIPOS>MOLECULE
*****
 41 44 0 0 0
SMALL
GASTEIGER

@<TRIPOS>ATOM
      1 C         141.3774  138.5719  158.2597 C.ar    1  UNL1        0.0597
      2 C         140.1219  138.2804  159.0270 C.ar    1  UNL1        0.0422
      3 C         139.6044  139.2744  160.0239 C.ar    1  UNL1        0.1485
      4 C         140.3423  140.5600  160.2536 C.ar    1  UNL1        0.0743
      5 C         141.5978  140.8515  159.4864 C.ar    1  UNL1        0.1416
      6 C         142.1153  139.8575  158.4894 C.ar    1  UNL1        0.0416
      7 N         140.9487  136.6287  156.5893 N.am    1  UNL1       -0.2644
      8 C         141.8950  137.5779  157.2627 C.2     1  UNL1        0.2508
      9 O         143.3590  137.5331  156.9390 O.2     1  UNL1       -0.2698
     10 H         139.9878  136.6581  156.8017 H       1  UNL1        0.1566
     11 N         142.4557  133.6443  154.6175 N.ar    1  UNL1       -0.2357
     12 C         142.0699  134.5658  153.4985 C.ar    1  UNL1        0.0988
     13 C         141.4584  135.7960  154.1010 C.ar    1  UNL1        0.0565
     14 C         141.4663  135.6346  155.5923 C.ar    1  UNL1        0.1557
     15 N         142.0827  134.3049  155.9115 N.ar    1  UNL1       -0.1534
     16 C         143.1012  132.2986  154.4686 C.3     1  UNL1        0.2423
     17 P         142.9360  131.2645  155.5425 P.3     1  UNL1        0.3677
     18 O         142.7708  130.2304  156.6165 O.2     1  UNL1       -0.2557
     19 O         141.4485  131.3063  155.3540 O.3     1  UNL1       -0.2928
     20 C         139.7699  129.3719  154.9177 C.3     1  UNL1        0.0352
     21 C         140.7854  130.3506  154.4070 C.3     1  UNL1        0.1515
     22 O         144.4236  131.2227  155.7311 O.3     1  UNL1       -0.2928
     23 C         145.1014  132.2576  156.5793 C.3     1  UNL1        0.1515
     24 C         145.3854  131.9741  158.0246 C.3     1  UNL1        0.0352
     25 O         138.3488  138.9829  160.7912 O.3     1  UNL1       -0.4518
     26 C         138.3646  139.0034  162.2910 C.ar    1  UNL1        0.1644
     27 C         138.8329  137.7989  163.0527 C.ar    1  UNL1        0.0408
     28 C         138.8487  137.8194  164.5524 C.ar    1  UNL1        0.0269
     29 C         138.3962  139.0443  165.2906 C.ar    1  UNL1        0.1349
     30 N         137.9280  140.2487  164.5289 N.ar    1  UNL1       -0.2361
     31 C         137.9122  140.2282  163.0292 C.ar    1  UNL1        0.1363
     32 C         138.4121  139.0648  166.7904 C.2     1  UNL1        0.2668
     33 O         137.4636  138.1963  167.5623 O.2     1  UNL1       -0.2683
     34 N         139.3764  139.9540  167.5182 N.am    1  UNL1       -0.2747
     35 C         140.4390  140.9289  167.1054 C.3     1  UNL1        0.0955
     36 C         140.7401  141.2113  168.5475 C.3     1  UNL1        0.0430
     37 C         139.6775  140.2364  168.9602 C.3     1  UNL1        0.0955
     38 O         142.3357  142.1371  159.7161 O.3     1  UNL1       -0.4791
     39 C         143.0786  142.3563  161.0006 C.3     1  UNL1        0.1661
     40 C         142.3917  143.0118  162.1618 C.3     1  UNL1        0.0472
     41 C         144.5084  141.9199  161.1239 C.3     1  UNL1        0.0472
@<TRIPOS>BOND
     1    20    21    1
     2    21    19    1
     3    19    17    1
     4    17    18    2
     5    17    16    1
     6    16    11    1
     7    11    12   ar
     8    12    13   ar
     9    13    14   ar
    10    14     7    1
    11     7     8   am
    12     8     9    2
    13     8     1    1
    14     1     2   ar
    15     2     3   ar
    16     3    25    1
    17    25    26    1
    18    26    27   ar
    19    27    28   ar
    20    28    29   ar
    21    29    32    1
    22    32    33    2
    23    32    34   am
    24    34    35    1
    25    35    36    1
    26    36    37    1
    27    29    30   ar
    28    30    31   ar
    29     3     4   ar
    30     4     5   ar
    31     5    38    1
    32    38    39    1
    33    39    40    1
    34    39    41    1
    35     5     6   ar
    36    14    15   ar
    37    17    22    1
    38    22    23    1
    39    23    24    1
    40    15    11   ar
    41     6     1   ar
    42    31    26   ar
    43    37    34    1
    44     7    10    1
@<TRIPOS>MOLECULE
*****
 41 44 0 0 0
SMALL
GASTEIGER

@<TRIPOS>ATOM
      1 C         144.4471  142.1336  159.0577 C.ar    1  UNL1        0.0597
      2 C         143.6010  141.1992  158.2448 C.ar    1  UNL1        0.0422
      3 C         144.0200  140.8261  156.8537 C.ar    1  UNL1        0.1485
      4 C         145.2851  141.3875  156.2755 C.ar    1  UNL1        0.0743
      5 C         146.1312  142.3220  157.0884 C.ar    1  UNL1        0.1416
      6 C         145.7122  142.6950  158.4795 C.ar    1  UNL1        0.0416
      7 N         144.3752  141.6123  161.6020 N.am    1  UNL1       -0.2644
      8 C         144.0282  142.5067  160.4489 C.2     1  UNL1        0.2508
      9 O         143.2622  143.7743  160.6869 O.2     1  UNL1       -0.2698
     10 H         144.8779  140.7804  161.4457 H       1  UNL1        0.1566
     11 N         142.6121  142.3343  164.9837 N.ar    1  UNL1       -0.2357
     12 C         144.0110  142.7849  165.2841 C.ar    1  UNL1        0.0988
     13 C         144.8417  142.5692  164.0538 C.ar    1  UNL1        0.0565
     14 C         143.9562  141.9854  162.9931 C.ar    1  UNL1        0.1557
     15 N         142.5783  141.8402  163.5678 N.ar    1  UNL1       -0.1534
     16 C         141.4510  142.3713  165.9325 C.3     1  UNL1        0.2423
     17 P         141.3661  141.3777  167.0531 P.3     1  UNL1        0.3677
     18 O         141.2812  140.3843  168.1737 O.2     1  UNL1       -0.2557
     19 O         141.1424  140.2763  166.0597 O.3     1  UNL1       -0.2928
     20 C         143.3278  138.9130  165.7204 C.3     1  UNL1        0.0352
     21 C         141.9029  138.9893  166.1829 C.3     1  UNL1        0.1515
     22 O         141.5899  142.4792  168.0465 O.3     1  UNL1       -0.2928
     23 C         140.6319  142.6682  169.1852 C.3     1  UNL1        0.1515
     24 C         140.4599  144.0240  169.8034 C.3     1  UNL1        0.0352
     25 O         143.1739  139.8916  156.0407 O.3     1  UNL1       -0.4518
     26 C         143.2707  138.4107  156.2585 C.ar    1  UNL1        0.1644
     27 C         144.0004  137.5530  155.2674 C.ar    1  UNL1        0.0408
     28 C         144.0973  136.0721  155.4851 C.ar    1  UNL1        0.0269
     29 C         143.4645  135.4488  156.6939 C.ar    1  UNL1        0.1349
     30 N         142.7349  136.3064  157.6849 N.ar    1  UNL1       -0.2361
     31 C         142.6380  137.7873  157.4672 C.ar    1  UNL1        0.1363
     32 C         143.5613  133.9678  156.9116 C.2     1  UNL1        0.2668
     33 O         144.5753  133.4152  157.8690 O.2     1  UNL1       -0.2683
     34 N         142.6442  133.0394  156.1720 N.am    1  UNL1       -0.2747
     35 C         141.5422  133.2131  155.1693 C.3     1  UNL1        0.0955
     36 C         141.3472  131.7265  155.1260 C.3     1  UNL1        0.0430
     37 C         142.4492  131.5528  156.1287 C.3     1  UNL1        0.0955
     38 O         147.3963  142.8834  156.5102 O.3     1  UNL1       -0.4791
     39 C         147.6132  142.8701  155.0260 C.3     1  UNL1        0.1661
     40 C         148.4926  141.8251  154.4059 C.3     1  UNL1        0.0472
     41 C         146.9505  143.9018  154.1619 C.3     1  UNL1        0.0472
@<TRIPOS>BOND
     1    20    21    1
     2    21    19    1
     3    19    17    1
     4    17    18    2
     5    17    16    1
     6    16    11    1
     7    11    12   ar
     8    12    13   ar
     9    13    14   ar
    10    14     7    1
    11     7     8   am
    12     8     9    2
    13     8     1    1
    14     1     2   ar
    15     2     3   ar
    16     3    25    1
    17    25    26    1
    18    26    27   ar
    19    27    28   ar
    20    28    29   ar
    21    29    32    1
    22    32    33    2
    23    32    34   am
    24    34    35    1
    25    35    36    1
    26    36    37    1
    27    29    30   ar
    28    30    31   ar
    29     3     4   ar
    30     4     5   ar
    31     5    38    1
    32    38    39    1
    33    39    40    1
    34    39    41    1
    35     5     6   ar
    36    14    15   ar
    37    17    22    1
    38    22    23    1
    39    23    24    1
    40    15    11   ar
    41     6     1   ar
    42    31    26   ar
    43    37    34    1
    44     7    10    1
@<TRIPOS>MOLECULE
*****
 41 44 0 0 0
SMALL
GASTEIGER

@<TRIPOS>ATOM
      1 C         142.5752  140.8373  160.2359 C.ar    1  UNL1        0.0597
      2 C         143.4569  141.1056  161.4193 C.ar    1  UNL1        0.0422
      3 C         142.9890  142.0223  162.5105 C.ar    1  UNL1        0.1485
      4 C         141.6395  142.6706  162.4183 C.ar    1  UNL1        0.0743
      5 C         140.7579  142.4023  161.2348 C.ar    1  UNL1        0.1416
      6 C         141.2257  141.4856  160.1436 C.ar    1  UNL1        0.0416
      7 N         142.0913  138.9355  158.5332 N.am    1  UNL1       -0.2644
      8 C         143.0430  139.9206  159.1446 C.2     1  UNL1        0.2508
      9 O         144.4625  139.9890  158.6647 O.2     1  UNL1       -0.2698
     10 H         141.1597  138.8905  158.8482 H       1  UNL1        0.1566
     11 N         143.3315  136.0465  156.2569 N.ar    1  UNL1       -0.2357
     12 C         143.2264  137.1698  155.2683 C.ar    1  UNL1        0.0988
     13 C         142.7490  138.3887  156.0007 C.ar    1  UNL1        0.0565
     14 C         142.5591  138.0187  157.4419 C.ar    1  UNL1        0.1557
     15 N         142.9191  136.5712  157.6003 N.ar    1  UNL1       -0.1534
     16 C         143.7717  134.6448  155.9551 C.3     1  UNL1        0.2423
     17 P         142.7582  133.5422  155.8697 P.3     1  UNL1        0.3677
     18 O         141.7448  132.4397  155.7843 O.2     1  UNL1       -0.2557
     19 O         142.4991  133.8917  154.4342 O.3     1  UNL1       -0.2928
     20 C         140.8930  135.3365  152.9910 C.3     1  UNL1        0.0352
     21 C         141.1095  134.2340  153.9847 C.3     1  UNL1        0.1515
     22 O         143.0175  133.1928  157.3053 O.3     1  UNL1       -0.2928
     23 C         144.4247  133.1388  157.8217 C.3     1  UNL1        0.1515
     24 C         145.1186  131.8174  157.9709 C.3     1  UNL1        0.0352
     25 O         143.8707  142.2907  163.6941 O.3     1  UNL1       -0.4518
     26 C         143.4709  141.7996  165.0538 C.ar    1  UNL1        0.1644
     27 C         142.9954  140.3881  165.2316 C.ar    1  UNL1        0.0408
     28 C         142.5956  139.8970  166.5913 C.ar    1  UNL1        0.0269
     29 C         142.6712  140.8174  167.7734 C.ar    1  UNL1        0.1349
     30 N         143.1467  142.2289  167.5956 N.ar    1  UNL1       -0.2361
     31 C         143.5465  142.7200  166.2358 C.ar    1  UNL1        0.1363
     32 C         142.2714  140.3264  169.1331 C.2     1  UNL1        0.2668
     33 O         143.3184  139.8544  170.0979 O.2     1  UNL1       -0.2683
     34 N         140.8244  140.3073  169.5281 N.am    1  UNL1       -0.2747
     35 C         139.5370  140.6869  168.8584 C.3     1  UNL1        0.0955
     36 C         138.7781  140.2802  170.0867 C.3     1  UNL1        0.0430
     37 C         140.0655  139.9006  170.7564 C.3     1  UNL1        0.0955
     38 O         139.4084  143.0506  161.1426 O.3     1  UNL1       -0.4791
     39 C         138.3899  142.8191  162.2192 C.3     1  UNL1        0.1661
     40 C         138.0376  143.9255  163.1689 C.3     1  UNL1        0.0472
     41 C         137.7237  141.4811  162.3462 C.3     1  UNL1        0.0472
@<TRIPOS>BOND
     1    20    21    1
     2    21    19    1
     3    19    17    1
     4    17    18    2
     5    17    16    1
     6    16    11    1
     7    11    12   ar
     8    12    13   ar
     9    13    14   ar
    10    14     7    1
    11     7     8   am
    12     8     9    2
    13     8     1    1
    14     1     2   ar
    15     2     3   ar
    16     3    25    1
    17    25    26    1
    18    26    27   ar
    19    27    28   ar
    20    28    29   ar
    21    29    32    1
    22    32    33    2
    23    32    34   am
    24    34    35    1
    25    35    36    1
    26    36    37    1
    27    29    30   ar
    28    30    31   ar
    29     3     4   ar
    30     4     5   ar
    31     5    38    1
    32    38    39    1
    33    39    40    1
    34    39    41    1
    35     5     6   ar
    36    14    15   ar
    37    17    22    1
    38    22    23    1
    39    23    24    1
    40    15    11   ar
    41     6     1   ar
    42    31    26   ar
    43    37    34    1
    44     7    10    1
@<TRIPOS>MOLECULE
*****
 41 44 0 0 0
SMALL
GASTEIGER

@<TRIPOS>ATOM
      1 C         141.6540  138.6727  159.6157 C.ar    1  UNL1        0.0597
      2 C         142.6114  137.7557  158.9140 C.ar    1  UNL1        0.0422
      3 C         142.7437  137.8097  157.4208 C.ar    1  UNL1        0.1485
      4 C         141.9187  138.7808  156.6294 C.ar    1  UNL1        0.0743
      5 C         140.9613  139.6978  157.3311 C.ar    1  UNL1        0.1416
      6 C         140.8290  139.6438  158.8243 C.ar    1  UNL1        0.0416
      7 N         142.2150  139.6401  161.9608 N.am    1  UNL1       -0.2644
      8 C         141.5216  138.6186  161.1089 C.2     1  UNL1        0.2508
      9 O         140.6958  137.5431  161.7502 O.2     1  UNL1       -0.2698
     10 H         142.7570  140.3461  161.5399 H       1  UNL1        0.1566
     11 N         141.4542  140.1210  165.7365 N.ar    1  UNL1       -0.2357
     12 C         142.3035  138.8848  165.7670 C.ar    1  UNL1        0.0988
     13 C         142.6918  138.5543  164.3563 C.ar    1  UNL1        0.0565
     14 C         142.0826  139.5861  163.4540 C.ar    1  UNL1        0.1557
     15 N         141.3177  140.5543  164.3069 N.ar    1  UNL1       -0.1534
     16 C         140.8480  140.8037  166.9264 C.3     1  UNL1        0.2423
     17 P         139.7951  140.1063  167.7357 P.3     1  UNL1        0.3677
     18 O         138.7422  139.4088  168.5450 O.2     1  UNL1       -0.2557
     19 O         138.9382  139.9789  166.5111 O.3     1  UNL1       -0.2928
     20 C         138.7903  137.7734  165.1460 C.3     1  UNL1        0.0352
     21 C         138.2486  138.6813  166.2100 C.3     1  UNL1        0.1515
     22 O         140.6520  140.2337  168.9603 O.3     1  UNL1       -0.2928
     23 C         140.1055  140.8906  170.1931 C.3     1  UNL1        0.1515
     24 C         139.8442  142.3677  170.2027 C.3     1  UNL1        0.0352
     25 O         143.7012  136.8927  156.7190 O.3     1  UNL1       -0.4518
     26 C         143.3101  135.4719  156.4391 C.ar    1  UNL1        0.1644
     27 C         142.8688  135.0728  155.0621 C.ar    1  UNL1        0.0408
     28 C         142.4777  133.6520  154.7821 C.ar    1  UNL1        0.0269
     29 C         142.5280  132.6302  155.8792 C.ar    1  UNL1        0.1349
     30 N         142.9692  133.0293  157.2561 N.ar    1  UNL1       -0.2361
     31 C         143.3603  134.4501  157.5361 C.ar    1  UNL1        0.1363
     32 C         142.1369  131.2094  155.5993 C.2     1  UNL1        0.2668
     33 O         140.7662  130.8981  155.0758 O.2     1  UNL1       -0.2683
     34 N         143.1167  130.1000  155.8428 N.am    1  UNL1       -0.2747
     35 C         144.5287  130.0226  156.3430 C.3     1  UNL1        0.0955
     36 C         144.5022  128.5310  156.1872 C.3     1  UNL1        0.0430
     37 C         143.0901  128.6083  155.6870 C.3     1  UNL1        0.0955
     38 O         140.1363  140.6689  156.5397 O.3     1  UNL1       -0.4791
     39 C         138.6747  140.4099  156.3241 C.3     1  UNL1        0.1661
     40 C         137.6616  141.0091  157.2539 C.3     1  UNL1        0.0472
     41 C         138.2261  139.5516  155.1785 C.3     1  UNL1        0.0472
@<TRIPOS>BOND
     1    20    21    1
     2    21    19    1
     3    19    17    1
     4    17    18    2
     5    17    16    1
     6    16    11    1
     7    11    12   ar
     8    12    13   ar
     9    13    14   ar
    10    14     7    1
    11     7     8   am
    12     8     9    2
    13     8     1    1
    14     1     2   ar
    15     2     3   ar
    16     3    25    1
    17    25    26    1
    18    26    27   ar
    19    27    28   ar
    20    28    29   ar
    21    29    32    1
    22    32    33    2
    23    32    34   am
    24    34    35    1
    25    35    36    1
    26    36    37    1
    27    29    30   ar
    28    30    31   ar
    29     3     4   ar
    30     4     5   ar
    31     5    38    1
    32    38    39    1
    33    39    40    1
    34    39    41    1
    35     5     6   ar
    36    14    15   ar
    37    17    22    1
    38    22    23    1
    39    23    24    1
    40    15    11   ar
    41     6     1   ar
    42    31    26   ar
    43    37    34    1
    44     7    10    1
@<TRIPOS>MOLECULE
*****
 41 44 0 0 0
SMALL
GASTEIGER

@<TRIPOS>ATOM
      1 C         141.5276  138.6323  159.6435 C.ar    1  UNL1        0.0597
      2 C         142.5325  137.7651  158.9450 C.ar    1  UNL1        0.0422
      3 C         142.6435  137.8011  157.4496 C.ar    1  UNL1        0.1485
      4 C         141.7497  138.7044  156.6527 C.ar    1  UNL1        0.0743
      5 C         140.7448  139.5717  157.3512 C.ar    1  UNL1        0.1416
      6 C         140.6337  139.5356  158.8466 C.ar    1  UNL1        0.0416
      7 N         142.2039  139.5629  161.9730 N.am    1  UNL1       -0.2644
      8 C         141.4165  138.5963  161.1390 C.2     1  UNL1        0.2508
      9 O         140.5180  137.5937  161.8004 O.2     1  UNL1       -0.2698
     10 H         142.7936  140.2210  161.5389 H       1  UNL1        0.1566
     11 N         141.5125  140.0996  165.7545 N.ar    1  UNL1       -0.2357
     12 C         142.3314  138.8432  165.7851 C.ar    1  UNL1        0.0988
     13 C         142.6900  138.4892  164.3722 C.ar    1  UNL1        0.0565
     14 C         142.0928  139.5269  163.4685 C.ar    1  UNL1        0.1557
     15 N         141.3652  140.5222  164.3228 N.ar    1  UNL1       -0.1534
     16 C         140.9414  140.8090  166.9463 C.3     1  UNL1        0.2423
     17 P         139.8751  140.1510  167.7710 P.3     1  UNL1        0.3677
     18 O         138.8088  139.4930  168.5956 O.2     1  UNL1       -0.2557
     19 O         140.7863  140.1674  168.9624 O.3     1  UNL1       -0.2928
     20 C         139.8979  142.3367  170.0825 C.3     1  UNL1        0.0352
     21 C         141.0448  141.4527  169.6912 C.3     1  UNL1        0.1515
     22 O         138.9639  140.1346  166.5795 O.3     1  UNL1       -0.2928
     23 C         138.1611  138.9069  166.2662 C.3     1  UNL1        0.1515
     24 C         138.7203  137.8584  165.3509 C.3     1  UNL1        0.0352
     25 O         143.6485  136.9339  156.7510 O.3     1  UNL1       -0.4518
     26 C         143.3012  135.5177  156.3992 C.ar    1  UNL1        0.1644
     27 C         142.9610  135.1585  154.9830 C.ar    1  UNL1        0.0408
     28 C         142.6137  133.7423  154.6312 C.ar    1  UNL1        0.0269
     29 C         142.6066  132.6852  155.6956 C.ar    1  UNL1        0.1349
     30 N         142.9468  133.0445  157.1116 N.ar    1  UNL1       -0.2361
     31 C         143.2941  134.4607  157.4634 C.ar    1  UNL1        0.1363
     32 C         142.2593  131.2690  155.3438 C.2     1  UNL1        0.2668
     33 O         140.8332  130.8919  155.0721 O.2     1  UNL1       -0.2683
     34 N         143.3382  130.2300  155.2637 N.am    1  UNL1       -0.2747
     35 C         144.8251  130.2274  155.4616 C.3     1  UNL1        0.0955
     36 C         144.8640  128.7605  155.1504 C.3     1  UNL1        0.0430
     37 C         143.3771  128.7631  154.9525 C.3     1  UNL1        0.0955
     38 O         139.8509  140.4750  156.5543 O.3     1  UNL1       -0.4791
     39 C         140.1306  141.9476  156.4980 C.3     1  UNL1        0.1661
     40 C         141.5336  142.4514  156.6652 C.3     1  UNL1        0.0472
     41 C         139.0074  142.9164  156.2745 C.3     1  UNL1        0.0472
@<TRIPOS>BOND
     1    20    21    1
     2    21    19    1
     3    19    17    1
     4    17    18    2
     5    17    16    1
     6    16    11    1
     7    11    12   ar
     8    12    13   ar
     9    13    14   ar
    10    14     7    1
    11     7     8   am
    12     8     9    2
    13     8     1    1
    14     1     2   ar
    15     2     3   ar
    16     3    25    1
    17    25    26    1
    18    26    27   ar
    19    27    28   ar
    20    28    29   ar
    21    29    32    1
    22    32    33    2
    23    32    34   am
    24    34    35    1
    25    35    36    1
    26    36    37    1
    27    29    30   ar
    28    30    31   ar
    29     3     4   ar
    30     4     5   ar
    31     5    38    1
    32    38    39    1
    33    39    40    1
    34    39    41    1
    35     5     6   ar
    36    14    15   ar
    37    17    22    1
    38    22    23    1
    39    23    24    1
    40    15    11   ar
    41     6     1   ar
    42    31    26   ar
    43    37    34    1
    44     7    10    1
@<TRIPOS>MOLECULE
*****
 41 44 0 0 0
SMALL
GASTEIGER

@<TRIPOS>ATOM
      1 C         138.5921  142.6617  158.3545 C.ar    1  UNL1        0.0597
      2 C         137.6685  141.5218  158.0422 C.ar    1  UNL1        0.0422
      3 C         137.2605  141.2542  156.6238 C.ar    1  UNL1        0.1485
      4 C         137.7761  142.1265  155.5178 C.ar    1  UNL1        0.0743
      5 C         138.6996  143.2664  155.8301 C.ar    1  UNL1        0.1416
      6 C         139.1076  143.5340  157.2485 C.ar    1  UNL1        0.0416
      7 N         137.9677  142.9406  160.8610 N.am    1  UNL1       -0.2644
      8 C         139.0001  142.9294  159.7730 C.2     1  UNL1        0.2508
      9 O         140.4406  143.1858  160.1033 O.2     1  UNL1       -0.2698
     10 H         137.0222  142.7723  160.6442 H       1  UNL1        0.1566
     11 N         139.3198  142.9411  164.4993 N.ar    1  UNL1       -0.2357
     12 C         138.6874  144.2993  164.4250 C.ar    1  UNL1        0.0988
     13 C         138.1038  144.4644  163.0530 C.ar    1  UNL1        0.0565
     14 C         138.3757  143.2082  162.2795 C.ar    1  UNL1        0.1557
     15 N         139.1272  142.2669  163.1734 N.ar    1  UNL1       -0.1534
     16 C         140.0216  142.3594  165.6905 C.3     1  UNL1        0.2423
     17 P         140.3940  140.9064  165.7061 P.3     1  UNL1        0.3677
     18 O         140.7663  139.4535  165.7217 O.2     1  UNL1       -0.2557
     19 O         141.8010  141.2629  165.3277 O.3     1  UNL1       -0.2928
     20 C         143.8577  142.8305  165.5775 C.3     1  UNL1        0.0352
     21 C         142.5243  142.3490  166.0675 C.3     1  UNL1        0.1515
     22 O         138.9869  140.5500  166.0844 O.3     1  UNL1       -0.2928
     23 C         138.4867  139.1507  165.8796 C.3     1  UNL1        0.1515
     24 C         137.6674  138.4837  166.9444 C.3     1  UNL1        0.0352
     25 O         136.3369  140.1143  156.3114 O.3     1  UNL1       -0.4518
     26 C         134.8647  140.3608  156.1630 C.ar    1  UNL1        0.1644
     27 C         134.3401  141.0565  154.9419 C.ar    1  UNL1        0.0408
     28 C         132.8680  141.3030  154.7936 C.ar    1  UNL1        0.0269
     29 C         131.9204  140.8539  155.8663 C.ar    1  UNL1        0.1349
     30 N         132.4451  140.1583  157.0872 N.ar    1  UNL1       -0.2361
     31 C         133.9172  139.9118  157.2356 C.ar    1  UNL1        0.1363
     32 C         130.4483  141.1005  155.7179 C.2     1  UNL1        0.2668
     33 O         129.9437  142.4865  155.4452 O.2     1  UNL1       -0.2683
     34 N         129.4807  139.9610  155.8422 N.am    1  UNL1       -0.2747
     35 C         129.6035  138.4888  156.1021 C.3     1  UNL1        0.0955
     36 C         128.1123  138.3496  156.0181 C.3     1  UNL1        0.0430
     37 C         127.9896  139.8218  155.7582 C.3     1  UNL1        0.0955
     38 O         139.2152  144.1386  154.7241 O.3     1  UNL1       -0.4791
     39 C         139.6733  145.5355  155.0221 C.3     1  UNL1        0.1661
     40 C         141.1342  145.8230  155.2039 C.3     1  UNL1        0.0472
     41 C         138.6704  146.6450  155.1384 C.3     1  UNL1        0.0472
@<TRIPOS>BOND
     1    20    21    1
     2    21    19    1
     3    19    17    1
     4    17    18    2
     5    17    16    1
     6    16    11    1
     7    11    12   ar
     8    12    13   ar
     9    13    14   ar
    10    14     7    1
    11     7     8   am
    12     8     9    2
    13     8     1    1
    14     1     2   ar
    15     2     3   ar
    16     3    25    1
    17    25    26    1
    18    26    27   ar
    19    27    28   ar
    20    28    29   ar
    21    29    32    1
    22    32    33    2
    23    32    34   am
    24    34    35    1
    25    35    36    1
    26    36    37    1
    27    29    30   ar
    28    30    31   ar
    29     3     4   ar
    30     4     5   ar
    31     5    38    1
    32    38    39    1
    33    39    40    1
    34    39    41    1
    35     5     6   ar
    36    14    15   ar
    37    17    22    1
    38    22    23    1
    39    23    24    1
    40    15    11   ar
    41     6     1   ar
    42    31    26   ar
    43    37    34    1
    44     7    10    1
@<TRIPOS>MOLECULE
*****
 41 44 0 0 0
SMALL
GASTEIGER

@<TRIPOS>ATOM
      1 C         143.7702  139.6354  156.1383 C.ar    1  UNL1        0.0597
      2 C         142.5383  140.4710  156.3225 C.ar    1  UNL1        0.0422
      3 C         142.6625  141.9163  156.7040 C.ar    1  UNL1        0.1485
      4 C         144.0187  142.5260  156.9013 C.ar    1  UNL1        0.0743
      5 C         145.2507  141.6904  156.7171 C.ar    1  UNL1        0.1416
      6 C         145.1264  140.2451  156.3356 C.ar    1  UNL1        0.0416
      7 N         142.2913  137.5893  155.5248 N.am    1  UNL1       -0.2644
      8 C         143.6460  138.1900  155.7567 C.2     1  UNL1        0.2508
      9 O         144.8766  137.3455  155.6071 O.2     1  UNL1       -0.2698
     10 H         141.4836  138.1437  155.6231 H       1  UNL1        0.1566
     11 N         141.9859  133.7276  155.2810 N.ar    1  UNL1       -0.2357
     12 C         141.9659  134.1120  153.8312 C.ar    1  UNL1        0.0988
     13 C         142.0779  135.6055  153.7461 C.ar    1  UNL1        0.0565
     14 C         142.1671  136.1439  155.1433 C.ar    1  UNL1        0.1557
     15 N         142.1102  134.9834  156.0919 N.ar    1  UNL1       -0.1534
     16 C         141.8971  132.3324  155.8245 C.3     1  UNL1        0.2423
     17 P         142.8072  131.2628  155.2974 P.3     1  UNL1        0.3677
     18 O         143.7172  130.1932  154.7703 O.2     1  UNL1       -0.2557
     19 O         143.9861  132.1695  155.4926 O.3     1  UNL1       -0.2928
     20 C         145.1389  132.2539  157.8193 C.3     1  UNL1        0.0352
     21 C         145.1049  131.7594  156.4037 C.3     1  UNL1        0.1515
     22 O         141.6282  130.3561  155.1022 O.3     1  UNL1       -0.2928
     23 C         140.3297  130.9123  154.5976 C.3     1  UNL1        0.1515
     24 C         139.8639  130.5881  153.2092 C.3     1  UNL1        0.0352
     25 O         141.4305  142.7520  156.8882 O.3     1  UNL1       -0.4518
     26 C         140.6474  142.6624  158.1645 C.ar    1  UNL1        0.1644
     27 C         140.7542  141.4388  159.0256 C.ar    1  UNL1        0.0408
     28 C         139.9711  141.3492  160.3018 C.ar    1  UNL1        0.0269
     29 C         139.0813  142.4832  160.7169 C.ar    1  UNL1        0.1349
     30 N         138.9745  143.7068  159.8558 N.ar    1  UNL1       -0.2361
     31 C         139.7576  143.7964  158.5796 C.ar    1  UNL1        0.1363
     32 C         138.2982  142.3936  161.9932 C.2     1  UNL1        0.2668
     33 O         137.2578  141.3263  162.1614 O.2     1  UNL1       -0.2683
     34 N         138.5556  143.3714  163.1012 N.am    1  UNL1       -0.2747
     35 C         139.4820  144.5352  163.2951 C.3     1  UNL1        0.0955
     36 C         138.9195  144.7542  164.6683 C.3     1  UNL1        0.0430
     37 C         137.9931  143.5905  164.4744 C.3     1  UNL1        0.0955
     38 O         146.6069  142.3001  156.9144 O.3     1  UNL1       -0.4791
     39 C         147.5149  142.5063  155.7384 C.3     1  UNL1        0.1661
     40 C         148.8446  141.8141  155.6870 C.3     1  UNL1        0.0472
     41 C         147.0930  143.4047  154.6136 C.3     1  UNL1        0.0472
@<TRIPOS>BOND
     1    20    21    1
     2    21    19    1
     3    19    17    1
     4    17    18    2
     5    17    16    1
     6    16    11    1
     7    11    12   ar
     8    12    13   ar
     9    13    14   ar
    10    14     7    1
    11     7     8   am
    12     8     9    2
    13     8     1    1
    14     1     2   ar
    15     2     3   ar
    16     3    25    1
    17    25    26    1
    18    26    27   ar
    19    27    28   ar
    20    28    29   ar
    21    29    32    1
    22    32    33    2
    23    32    34   am
    24    34    35    1
    25    35    36    1
    26    36    37    1
    27    29    30   ar
    28    30    31   ar
    29     3     4   ar
    30     4     5   ar
    31     5    38    1
    32    38    39    1
    33    39    40    1
    34    39    41    1
    35     5     6   ar
    36    14    15   ar
    37    17    22    1
    38    22    23    1
    39    23    24    1
    40    15    11   ar
    41     6     1   ar
    42    31    26   ar
    43    37    34    1
    44     7    10    1
