@<TRIPOS>MOLECULE
*****
 36 38 0 0 0
SMALL
GASTEIGER

@<TRIPOS>ATOM
      1 N         141.2521  138.3338  157.8238 N.3     1  UNL1       -0.2705
      2 C         139.8112  138.4118  158.2335 C.3     1  UNL1        0.0739
      3 C         139.4510  138.7785  159.6426 C.3     1  UNL1        0.0394
      4 C         140.5316  139.0671  160.6421 C.3     1  UNL1        0.1017
      5 C         141.9725  138.9891  160.2325 C.3     1  UNL1        0.1490
      6 C         142.3327  138.6224  158.8232 C.3     1  UNL1        0.1037
      7 N         140.1713  139.4338  162.0513 N.am    1  UNL1       -0.2999
      8 C         140.2485  138.4025  163.1378 C.2     1  UNL1        0.2488
      9 O         140.6859  137.0044  162.8150 O.2     1  UNL1       -0.2700
     10 H         139.8843  140.3514  162.2632 H       1  UNL1        0.1498
     11 C         139.8882  138.7692  164.5469 C.ar    1  UNL1        0.0882
     12 C         138.7097  138.1223  165.2123 C.ar    1  UNL1        0.0202
     13 C         138.3494  138.4890  166.6214 C.ar    1  UNL1        0.0709
     14 CL        137.1710  137.8421  167.2868 Cl      1  UNL1       -0.0810
     15 C         139.1676  139.5026  167.3652 C.ar    1  UNL1        0.0553
     16 N         138.8073  139.8693  168.7743 N.pl3   1  UNL1       -0.3563
     17 C         140.3461  140.1495  166.6999 C.ar    1  UNL1        0.0520
     18 C         140.7064  139.7828  165.2907 C.ar    1  UNL1        0.1443
     19 H         138.0339  139.4447  169.2111 H       1  UNL1        0.1424
     20 H         139.3444  140.5345  169.2625 H       1  UNL1        0.1424
     21 O         141.8849  140.4296  164.6253 O.3     1  UNL1       -0.4712
     22 C         143.2720  139.9352  164.9106 C.3     1  UNL1        0.2525
     23 O         143.0531  139.2777  161.2320 O.3     1  UNL1       -0.3505
     24 C         143.9669  138.1785  161.6869 C.3     1  UNL1        0.1741
     25 C         141.6123  137.9671  156.4146 C.3     1  UNL1        0.0722
     26 C         143.1133  132.3143  155.0758 C.2     1  UNL1        0.4049
     27 O         142.1485  131.4378  154.3337 O.2     1  UNL1       -0.2262
     28 N         142.7381  133.7275  155.4105 N.am    1  UNL1       -0.2460
     29 C         143.7029  134.6040  156.1526 C.3     1  UNL1        0.0968
     30 C         143.3277  136.0172  156.4873 C.3     1  UNL1        0.0231
     31 C         141.9876  136.5539  156.0799 C.3     1  UNL1        0.0194
     32 C         141.0227  135.6774  155.3378 C.3     1  UNL1        0.0231
     33 C         141.3980  134.2642  155.0031 C.3     1  UNL1        0.0968
     34 O         144.4534  131.7776  155.4831 O.3     1  UNL1       -0.4345
     35 C         145.3968  131.8620  157.9025 C.3     1  UNL1        0.0513
     36 C         144.6295  131.1446  156.8316 C.3     1  UNL1        0.2102
@<TRIPOS>BOND
     1    35    36    1
     2    36    34    1
     3    34    26    1
     4    26    27    2
     5    26    28   am
     6    28    29    1
     7    29    30    1
     8    30    31    1
     9    31    25    1
    10    25     1    1
    11     1     2    1
    12     2     3    1
    13     3     4    1
    14     4     7    1
    15     7     8   am
    16     8     9    2
    17     8    11    1
    18    11    12   ar
    19    12    13   ar
    20    13    14    1
    21    13    15   ar
    22    15    16    1
    23    15    17   ar
    24    17    18   ar
    25    18    21    1
    26    21    22    1
    27     4     5    1
    28     5    23    1
    29    23    24    1
    30     5     6    1
    31    31    32    1
    32    32    33    1
    33    33    28    1
    34     6     1    1
    35    18    11   ar
    36     7    10    1
    37    16    19    1
    38    16    20    1
@<TRIPOS>MOLECULE
*****
 36 38 0 0 0
SMALL
GASTEIGER

@<TRIPOS>ATOM
      1 N         138.9719  138.6262  162.9803 N.3     1  UNL1       -0.2705
      2 C         139.1838  138.0272  161.6214 C.3     1  UNL1        0.0739
      3 C         138.7399  138.7705  160.3966 C.3     1  UNL1        0.0394
      4 C         138.0839  140.1128  160.5305 C.3     1  UNL1        0.1017
      5 C         137.8720  140.7118  161.8892 C.3     1  UNL1        0.1490
      6 C         138.3160  139.9685  163.1142 C.3     1  UNL1        0.1037
      7 N         137.6399  140.8561  159.3055 N.am    1  UNL1       -0.2999
      8 C         138.6398  141.6178  158.4869 C.2     1  UNL1        0.2488
      9 O         140.0836  141.6362  158.8931 O.2     1  UNL1       -0.2700
     10 H         136.6923  140.8441  159.0389 H       1  UNL1        0.1498
     11 C         138.1957  142.3611  157.2620 C.ar    1  UNL1        0.0882
     12 C         138.8853  143.6328  156.8653 C.ar    1  UNL1        0.0202
     13 C         138.4413  144.3761  155.6404 C.ar    1  UNL1        0.0709
     14 CL        139.1308  145.6477  155.2437 Cl      1  UNL1       -0.0810
     15 C         137.3077  143.8477  154.8122 C.ar    1  UNL1        0.0553
     16 N         136.8637  144.5909  153.5873 N.pl3   1  UNL1       -0.3563
     17 C         136.6182  142.5760  155.2089 C.ar    1  UNL1        0.0520
     18 C         137.0622  141.8327  156.4338 C.ar    1  UNL1        0.1443
     19 H         137.3163  145.4256  153.3269 H       1  UNL1        0.1424
     20 H         136.1198  144.2441  153.0437 H       1  UNL1        0.1424
     21 O         136.3727  140.5610  156.8305 O.3     1  UNL1       -0.4712
     22 C         134.9112  140.3799  156.5455 C.3     1  UNL1        0.2525
     23 O         137.2160  142.0542  162.0231 O.3     1  UNL1       -0.3505
     24 C         138.0518  143.2769  162.2608 C.3     1  UNL1        0.1741
     25 C         139.4159  137.8829  164.2051 C.3     1  UNL1        0.0722
     26 C         139.3916  140.6160  169.5464 C.2     1  UNL1        0.4049
     27 O         138.1770  140.5385  170.4231 O.2     1  UNL1       -0.2262
     28 N         139.3977  139.9327  168.2111 N.am    1  UNL1       -0.2460
     29 C         140.6123  140.0103  167.3344 C.3     1  UNL1        0.0968
     30 C         140.6184  139.3270  165.9991 C.3     1  UNL1        0.0231
     31 C         139.4098  138.5662  165.5405 C.3     1  UNL1        0.0194
     32 C         138.1952  138.4886  166.4171 C.3     1  UNL1        0.0231
     33 C         138.1891  139.1719  167.7524 C.3     1  UNL1        0.0968
     34 O         140.6002  141.3769  170.0051 O.3     1  UNL1       -0.4345
     35 C         142.9137  140.2693  170.4186 C.3     1  UNL1        0.0513
     36 C         141.5838  140.7319  170.9359 C.3     1  UNL1        0.2102
@<TRIPOS>BOND
     1    35    36    1
     2    36    34    1
     3    34    26    1
     4    26    27    2
     5    26    28   am
     6    28    29    1
     7    29    30    1
     8    30    31    1
     9    31    25    1
    10    25     1    1
    11     1     2    1
    12     2     3    1
    13     3     4    1
    14     4     7    1
    15     7     8   am
    16     8     9    2
    17     8    11    1
    18    11    12   ar
    19    12    13   ar
    20    13    14    1
    21    13    15   ar
    22    15    16    1
    23    15    17   ar
    24    17    18   ar
    25    18    21    1
    26    21    22    1
    27     4     5    1
    28     5    23    1
    29    23    24    1
    30     5     6    1
    31    31    32    1
    32    32    33    1
    33    33    28    1
    34     6     1    1
    35    18    11   ar
    36     7    10    1
    37    16    19    1
    38    16    20    1
@<TRIPOS>MOLECULE
*****
 36 38 0 0 0
SMALL
GASTEIGER

@<TRIPOS>ATOM
      1 N         141.9237  138.0196  158.2332 N.3     1  UNL1       -0.2705
      2 C         142.9631  138.1513  159.3067 C.3     1  UNL1        0.0739
      3 C         142.5655  138.5841  160.6867 C.3     1  UNL1        0.0394
      4 C         141.1284  138.8853  160.9934 C.3     1  UNL1        0.1017
      5 C         140.0889  138.7537  159.9200 C.3     1  UNL1        0.1490
      6 C         140.4866  138.3208  158.5399 C.3     1  UNL1        0.1037
      7 N         140.7307  139.3181  162.3735 N.am    1  UNL1       -0.2999
      8 C         140.5522  138.2969  163.4575 C.2     1  UNL1        0.2488
      9 O         140.7712  136.8428  163.1615 O.2     1  UNL1       -0.2700
     10 H         140.5869  140.2725  162.5678 H       1  UNL1        0.1498
     11 C         140.1545  138.7297  164.8375 C.ar    1  UNL1        0.0882
     12 C         138.8587  138.2576  165.4274 C.ar    1  UNL1        0.0202
     13 C         138.4611  138.6905  166.8074 C.ar    1  UNL1        0.0709
     14 CL        137.1652  138.2184  167.3973 Cl      1  UNL1       -0.0810
     15 C         139.3592  139.5954  167.5976 C.ar    1  UNL1        0.0553
     16 N         138.9616  140.0282  168.9776 N.pl3   1  UNL1       -0.3563
     17 C         140.6551  140.0675  167.0077 C.ar    1  UNL1        0.0520
     18 C         141.0527  139.6346  165.6277 C.ar    1  UNL1        0.1443
     19 H         138.1111  139.7184  169.3648 H       1  UNL1        0.1424
     20 H         139.5511  140.6222  169.4962 H       1  UNL1        0.1424
     21 O         142.3485  140.1067  165.0378 O.3     1  UNL1       -0.4712
     22 C         143.6061  139.3211  165.2644 C.3     1  UNL1        0.2525
     23 O         138.6518  139.0549  160.2266 O.3     1  UNL1       -0.3505
     24 C         137.9757  140.2256  159.5767 C.3     1  UNL1        0.1741
     25 C         142.3213  137.5868  156.8532 C.3     1  UNL1        0.0722
     26 C         141.9854  131.7982  155.3111 C.2     1  UNL1        0.4049
     27 O         142.8628  130.7889  155.9904 O.2     1  UNL1       -0.2262
     28 N         142.0694  133.2453  155.6966 N.am    1  UNL1       -0.2460
     29 C         141.1921  134.2546  155.0172 C.3     1  UNL1        0.0968
     30 C         141.2760  135.7018  155.4028 C.3     1  UNL1        0.0231
     31 C         142.2374  136.1397  156.4677 C.3     1  UNL1        0.0194
     32 C         143.1147  135.1304  157.1470 C.3     1  UNL1        0.0231
     33 C         143.0307  133.6832  156.7615 C.3     1  UNL1        0.0968
     34 O         141.0241  131.3603  154.2461 O.3     1  UNL1       -0.4345
     35 C         139.9002  129.1414  154.9967 C.3     1  UNL1        0.0513
     36 C         139.7927  130.5890  154.6185 C.3     1  UNL1        0.2102
@<TRIPOS>BOND
     1    35    36    1
     2    36    34    1
     3    34    26    1
     4    26    27    2
     5    26    28   am
     6    28    29    1
     7    29    30    1
     8    30    31    1
     9    31    25    1
    10    25     1    1
    11     1     2    1
    12     2     3    1
    13     3     4    1
    14     4     7    1
    15     7     8   am
    16     8     9    2
    17     8    11    1
    18    11    12   ar
    19    12    13   ar
    20    13    14    1
    21    13    15   ar
    22    15    16    1
    23    15    17   ar
    24    17    18   ar
    25    18    21    1
    26    21    22    1
    27     4     5    1
    28     5    23    1
    29    23    24    1
    30     5     6    1
    31    31    32    1
    32    32    33    1
    33    33    28    1
    34     6     1    1
    35    18    11   ar
    36     7    10    1
    37    16    19    1
    38    16    20    1
@<TRIPOS>MOLECULE
*****
 36 38 0 0 0
SMALL
GASTEIGER

@<TRIPOS>ATOM
      1 N         142.1812  142.9274  160.5486 N.3     1  UNL1       -0.2705
      2 C         141.1864  141.8357  160.8109 C.3     1  UNL1        0.0739
      3 C         140.7793  141.5143  162.2184 C.3     1  UNL1        0.0394
      4 C         141.3671  142.2845  163.3636 C.3     1  UNL1        0.1017
      5 C         142.3618  143.3761  163.1013 C.3     1  UNL1        0.1490
      6 C         142.7689  143.6976  161.6938 C.3     1  UNL1        0.1037
      7 N         140.9600  141.9630  164.7711 N.am    1  UNL1       -0.2999
      8 C         141.7013  140.9136  165.5451 C.2     1  UNL1        0.2488
      9 O         142.8497  140.1856  164.9117 O.2     1  UNL1       -0.2700
     10 H         140.2063  142.4408  165.1868 H       1  UNL1        0.1498
     11 C         141.2942  140.5921  166.9525 C.ar    1  UNL1        0.0882
     12 C         142.3327  140.4994  168.0311 C.ar    1  UNL1        0.0202
     13 C         141.9256  140.1780  169.4385 C.ar    1  UNL1        0.0709
     14 CL        142.9640  140.0853  170.5169 Cl      1  UNL1       -0.0810
     15 C         140.4801  139.9493  169.7675 C.ar    1  UNL1        0.0553
     16 N         140.0730  139.6278  171.1749 N.pl3   1  UNL1       -0.3563
     17 C         139.4417  140.0420  168.6891 C.ar    1  UNL1        0.0520
     18 C         139.8487  140.3634  167.2815 C.ar    1  UNL1        0.1443
     19 H         140.7545  139.5670  171.8828 H       1  UNL1        0.1424
     20 H         139.1243  139.4777  171.3908 H       1  UNL1        0.1424
     21 O         138.8103  140.4561  166.2031 O.3     1  UNL1       -0.4712
     22 C         138.3282  139.2123  165.5172 C.3     1  UNL1        0.2525
     23 O         142.9495  144.1462  164.2465 O.3     1  UNL1       -0.3505
     24 C         144.2262  143.6844  164.8843 C.3     1  UNL1        0.1741
     25 C         142.5882  143.2488  159.1411 C.3     1  UNL1        0.0722
     26 C         138.8750  146.3282  155.5733 C.2     1  UNL1        0.4049
     27 O         137.6835  145.6490  154.9658 O.2     1  UNL1       -0.2262
     28 N         139.8033  145.5583  156.4653 N.am    1  UNL1       -0.2460
     29 C         140.9947  146.2376  157.0728 C.3     1  UNL1        0.0968
     30 C         141.9230  145.4677  157.9648 C.3     1  UNL1        0.0231
     31 C         141.6599  144.0187  158.2492 C.3     1  UNL1        0.0194
     32 C         140.4684  143.3394  157.6417 C.3     1  UNL1        0.0231
     33 C         139.5401  144.1093  156.7497 C.3     1  UNL1        0.0968
     34 O         139.1381  147.7773  155.2889 O.3     1  UNL1       -0.4345
     35 C         138.5641  150.2692  155.7482 C.3     1  UNL1        0.0513
     36 C         138.5624  148.8339  156.1844 C.3     1  UNL1        0.2102
@<TRIPOS>BOND
     1    35    36    1
     2    36    34    1
     3    34    26    1
     4    26    27    2
     5    26    28   am
     6    28    29    1
     7    29    30    1
     8    30    31    1
     9    31    25    1
    10    25     1    1
    11     1     2    1
    12     2     3    1
    13     3     4    1
    14     4     7    1
    15     7     8   am
    16     8     9    2
    17     8    11    1
    18    11    12   ar
    19    12    13   ar
    20    13    14    1
    21    13    15   ar
    22    15    16    1
    23    15    17   ar
    24    17    18   ar
    25    18    21    1
    26    21    22    1
    27     4     5    1
    28     5    23    1
    29    23    24    1
    30     5     6    1
    31    31    32    1
    32    32    33    1
    33    33    28    1
    34     6     1    1
    35    18    11   ar
    36     7    10    1
    37    16    19    1
    38    16    20    1
@<TRIPOS>MOLECULE
*****
 36 38 0 0 0
SMALL
GASTEIGER

@<TRIPOS>ATOM
      1 N         139.3228  138.0690  162.3691 N.3     1  UNL1       -0.2705
      2 C         137.9358  138.6140  162.1979 C.3     1  UNL1        0.0739
      3 C         137.5478  139.2880  160.9152 C.3     1  UNL1        0.0394
      4 C         138.5468  139.4171  159.8038 C.3     1  UNL1        0.1017
      5 C         139.9337  138.8722  159.9749 C.3     1  UNL1        0.1490
      6 C         140.3218  138.1981  161.2576 C.3     1  UNL1        0.1037
      7 N         138.1587  140.0911  158.5211 N.am    1  UNL1       -0.2999
      8 C         138.1517  141.5885  158.4330 C.2     1  UNL1        0.2488
      9 O         138.5326  142.4119  159.6275 O.2     1  UNL1       -0.2700
     10 H         137.9087  139.5507  157.7371 H       1  UNL1        0.1498
     11 C         137.7636  142.2624  157.1504 C.ar    1  UNL1        0.0882
     12 C         138.4852  143.4999  156.7052 C.ar    1  UNL1        0.0202
     13 C         138.0971  144.1739  155.4226 C.ar    1  UNL1        0.0709
     14 CL        138.8187  145.4113  154.9775 Cl      1  UNL1       -0.0810
     15 C         136.9876  143.6104  154.5851 C.ar    1  UNL1        0.0553
     16 N         136.5995  144.2844  153.3025 N.pl3   1  UNL1       -0.3563
     17 C         136.2660  142.3730  155.0302 C.ar    1  UNL1        0.0520
     18 C         136.6541  141.6990  156.3129 C.ar    1  UNL1        0.1443
     19 H         137.0731  145.0965  153.0103 H       1  UNL1        0.1424
     20 H         135.8713  143.9146  152.7528 H       1  UNL1        0.1424
     21 O         135.9325  140.4616  156.7580 O.3     1  UNL1       -0.4712
     22 C         134.4654  140.3098  156.4852 C.3     1  UNL1        0.2525
     23 O         140.9327  139.0012  158.8635 O.3     1  UNL1       -0.3505
     24 C         142.1647  138.1455  158.8592 C.3     1  UNL1        0.1741
     25 C         139.7108  137.3950  163.6517 C.3     1  UNL1        0.0722
     26 C         140.8533  140.6801  168.5408 C.2     1  UNL1        0.4049
     27 O         142.2622  141.0825  168.8615 O.2     1  UNL1       -0.2262
     28 N         140.5677  139.8588  167.3185 N.am    1  UNL1       -0.2460
     29 C         139.1587  139.4564  166.9977 C.3     1  UNL1        0.0968
     30 C         138.8731  138.6351  165.7755 C.3     1  UNL1        0.0231
     31 C         139.9964  138.2163  164.8740 C.3     1  UNL1        0.0194
     32 C         141.4053  138.6188  165.1947 C.3     1  UNL1        0.0231
     33 C         141.6909  139.4400  166.4170 C.3     1  UNL1        0.0968
     34 O         139.7300  141.0989  169.4423 O.3     1  UNL1       -0.4345
     35 C         140.4358  143.5959  169.5720 C.3     1  UNL1        0.0513
     36 C         139.8238  142.3841  170.2100 C.3     1  UNL1        0.2102
@<TRIPOS>BOND
     1    35    36    1
     2    36    34    1
     3    34    26    1
     4    26    27    2
     5    26    28   am
     6    28    29    1
     7    29    30    1
     8    30    31    1
     9    31    25    1
    10    25     1    1
    11     1     2    1
    12     2     3    1
    13     3     4    1
    14     4     7    1
    15     7     8   am
    16     8     9    2
    17     8    11    1
    18    11    12   ar
    19    12    13   ar
    20    13    14    1
    21    13    15   ar
    22    15    16    1
    23    15    17   ar
    24    17    18   ar
    25    18    21    1
    26    21    22    1
    27     4     5    1
    28     5    23    1
    29    23    24    1
    30     5     6    1
    31    31    32    1
    32    32    33    1
    33    33    28    1
    34     6     1    1
    35    18    11   ar
    36     7    10    1
    37    16    19    1
    38    16    20    1
@<TRIPOS>MOLECULE
*****
 36 38 0 0 0
SMALL
GASTEIGER

@<TRIPOS>ATOM
      1 N         139.1403  139.7966  160.0495 N.3     1  UNL1       -0.2705
      2 C         139.1400  138.5722  160.9161 C.3     1  UNL1        0.0739
      3 C         139.1627  138.7104  162.4095 C.3     1  UNL1        0.0394
      4 C         139.1857  140.0729  163.0364 C.3     1  UNL1        0.1017
      5 C         139.1861  141.2973  162.1699 C.3     1  UNL1        0.1490
      6 C         139.1634  141.1591  160.6764 C.3     1  UNL1        0.1037
      7 N         139.2084  140.2110  164.5299 N.am    1  UNL1       -0.2999
      8 C         140.4537  139.8743  165.2954 C.2     1  UNL1        0.2488
      9 O         141.6762  139.3995  164.5675 O.2     1  UNL1       -0.2700
     10 H         138.4060  140.5227  165.0077 H       1  UNL1        0.1498
     11 C         140.4763  140.0125  166.7888 C.ar    1  UNL1        0.0882
     12 C         141.7402  140.4223  167.4851 C.ar    1  UNL1        0.0202
     13 C         141.7629  140.5604  168.9785 C.ar    1  UNL1        0.0709
     14 CL        143.0267  140.9702  169.6747 Cl      1  UNL1       -0.0810
     15 C         140.5217  140.2888  169.7758 C.ar    1  UNL1        0.0553
     16 N         140.5443  140.4269  171.2692 N.pl3   1  UNL1       -0.3563
     17 C         139.2578  139.8790  169.0796 C.ar    1  UNL1        0.0520
     18 C         139.2351  139.7408  167.5861 C.ar    1  UNL1        0.1443
     19 H         141.3739  140.6958  171.7261 H       1  UNL1        0.1424
     20 H         139.7297  140.2486  171.7924 H       1  UNL1        0.1424
     21 O         137.9713  139.3310  166.8899 O.3     1  UNL1       -0.4712
     22 C         137.5543  137.8902  166.8791 C.3     1  UNL1        0.2525
     23 O         139.2091  142.6598  162.7968 O.3     1  UNL1       -0.3505
     24 C         137.9241  143.3261  163.1903 C.3     1  UNL1        0.1741
     25 C         139.1176  139.6585  158.5561 C.3     1  UNL1        0.0722
     26 C         143.6168  136.8682  155.7326 C.2     1  UNL1        0.4049
     27 O         144.9559  137.5336  155.6152 O.2     1  UNL1       -0.2262
     28 N         142.4920  137.5658  156.4385 N.am    1  UNL1       -0.2460
     29 C         141.1528  136.9004  156.5559 C.3     1  UNL1        0.0968
     30 C         140.0280  137.5979  157.2617 C.3     1  UNL1        0.0231
     31 C         140.2424  138.9609  157.8502 C.3     1  UNL1        0.0194
     32 C         141.5816  139.6263  157.7328 C.3     1  UNL1        0.0231
     33 C         142.7064  138.9287  157.0269 C.3     1  UNL1        0.0968
     34 O         143.4024  135.5053  155.1441 O.3     1  UNL1       -0.4345
     35 C         143.4862  134.1277  157.3453 C.3     1  UNL1        0.0513
     36 C         143.8438  134.2853  155.8971 C.3     1  UNL1        0.2102
@<TRIPOS>BOND
     1    35    36    1
     2    36    34    1
     3    34    26    1
     4    26    27    2
     5    26    28   am
     6    28    29    1
     7    29    30    1
     8    30    31    1
     9    31    25    1
    10    25     1    1
    11     1     2    1
    12     2     3    1
    13     3     4    1
    14     4     7    1
    15     7     8   am
    16     8     9    2
    17     8    11    1
    18    11    12   ar
    19    12    13   ar
    20    13    14    1
    21    13    15   ar
    22    15    16    1
    23    15    17   ar
    24    17    18   ar
    25    18    21    1
    26    21    22    1
    27     4     5    1
    28     5    23    1
    29    23    24    1
    30     5     6    1
    31    31    32    1
    32    32    33    1
    33    33    28    1
    34     6     1    1
    35    18    11   ar
    36     7    10    1
    37    16    19    1
    38    16    20    1
@<TRIPOS>MOLECULE
*****
 36 38 0 0 0
SMALL
GASTEIGER

@<TRIPOS>ATOM
      1 N         140.5308  139.0623  159.7622 N.3     1  UNL1       -0.2705
      2 C         139.6240  138.2224  160.6120 C.3     1  UNL1        0.0739
      3 C         139.8192  138.1762  162.0985 C.3     1  UNL1        0.0394
      4 C         140.9213  138.9699  162.7352 C.3     1  UNL1        0.1017
      5 C         141.8281  139.8098  161.8855 C.3     1  UNL1        0.1490
      6 C         141.6329  139.8560  160.3989 C.3     1  UNL1        0.1037
      7 N         141.1165  138.9237  164.2218 N.am    1  UNL1       -0.2999
      8 C         140.4682  139.9561  165.0958 C.2     1  UNL1        0.2488
      9 O         139.6247  141.0347  164.4833 O.2     1  UNL1       -0.2700
     10 H         141.6701  138.2158  164.6238 H       1  UNL1        0.1498
     11 C         140.6634  139.9098  166.5823 C.ar    1  UNL1        0.0882
     12 C         139.5013  140.1524  167.4993 C.ar    1  UNL1        0.0202
     13 C         139.6965  140.1061  168.9858 C.ar    1  UNL1        0.0709
     14 CL        138.5345  140.3487  169.9027 Cl      1  UNL1       -0.0810
     15 C         141.0538  139.8173  169.5554 C.ar    1  UNL1        0.0553
     16 N         141.2490  139.7711  171.0419 N.pl3   1  UNL1       -0.3563
     17 C         142.2159  139.5748  168.6385 C.ar    1  UNL1        0.0520
     18 C         142.0207  139.6210  167.1519 C.ar    1  UNL1        0.1443
     19 H         140.4863  139.9303  171.6437 H       1  UNL1        0.1424
     20 H         142.1398  139.5815  171.4157 H       1  UNL1        0.1424
     21 O         143.1827  139.3784  166.2350 O.3     1  UNL1       -0.4712
     22 C         143.9791  138.1127  166.3522 C.3     1  UNL1        0.2525
     23 O         142.9302  140.6035  162.5222 O.3     1  UNL1       -0.3505
     24 C         144.2687  139.9700  162.7620 C.3     1  UNL1        0.1741
     25 C         140.3356  139.1084  158.2757 C.3     1  UNL1        0.0722
     26 C         142.0996  134.4919  154.8734 C.2     1  UNL1        0.4049
     27 O         141.2006  133.9709  153.7916 O.2     1  UNL1       -0.2262
     28 N         141.6586  135.6460  155.7239 N.am    1  UNL1       -0.2460
     29 C         142.5576  136.1671  156.8057 C.3     1  UNL1        0.0968
     30 C         142.1166  137.3212  157.6563 C.3     1  UNL1        0.0231
     31 C         140.7766  137.9543  157.4251 C.3     1  UNL1        0.0194
     32 C         139.8776  137.4333  156.3433 C.3     1  UNL1        0.0231
     33 C         140.3186  136.2791  155.4928 C.3     1  UNL1        0.0968
     34 O         143.4396  133.8588  155.1045 O.3     1  UNL1       -0.4345
     35 C         144.8296  131.9846  156.2470 C.3     1  UNL1        0.0513
     36 C         143.5271  132.4822  155.6939 C.3     1  UNL1        0.2102
@<TRIPOS>BOND
     1    35    36    1
     2    36    34    1
     3    34    26    1
     4    26    27    2
     5    26    28   am
     6    28    29    1
     7    29    30    1
     8    30    31    1
     9    31    25    1
    10    25     1    1
    11     1     2    1
    12     2     3    1
    13     3     4    1
    14     4     7    1
    15     7     8   am
    16     8     9    2
    17     8    11    1
    18    11    12   ar
    19    12    13   ar
    20    13    14    1
    21    13    15   ar
    22    15    16    1
    23    15    17   ar
    24    17    18   ar
    25    18    21    1
    26    21    22    1
    27     4     5    1
    28     5    23    1
    29    23    24    1
    30     5     6    1
    31    31    32    1
    32    32    33    1
    33    33    28    1
    34     6     1    1
    35    18    11   ar
    36     7    10    1
    37    16    19    1
    38    16    20    1
@<TRIPOS>MOLECULE
*****
 36 38 0 0 0
SMALL
GASTEIGER

@<TRIPOS>ATOM
      1 N         140.6633  140.6362  160.1799 N.3     1  UNL1       -0.2705
      2 C         141.5305  141.5799  160.9595 C.3     1  UNL1        0.0739
      3 C         141.3902  141.6695  162.4502 C.3     1  UNL1        0.0394
      4 C         140.3828  140.8156  163.1614 C.3     1  UNL1        0.1017
      5 C         139.5156  139.8720  162.3820 C.3     1  UNL1        0.1490
      6 C         139.6559  139.7823  160.8912 C.3     1  UNL1        0.1037
      7 N         140.2426  140.9053  164.6522 N.am    1  UNL1       -0.2999
      8 C         141.0808  140.0322  165.5383 C.2     1  UNL1        0.2488
      9 O         142.0592  139.0695  164.9336 O.2     1  UNL1       -0.2700
     10 H         139.6004  141.5372  165.0491 H       1  UNL1        0.1498
     11 C         140.9405  140.1220  167.0289 C.ar    1  UNL1        0.0882
     12 C         142.1475  140.3792  167.8817 C.ar    1  UNL1        0.0202
     13 C         142.0072  140.4689  169.3724 C.ar    1  UNL1        0.0709
     14 CL        143.2141  140.7261  170.2251 Cl      1  UNL1       -0.0810
     15 C         140.6600  140.3015  170.0104 C.ar    1  UNL1        0.0553
     16 N         140.5197  140.3912  171.5011 N.pl3   1  UNL1       -0.3563
     17 C         139.4531  140.0443  169.1577 C.ar    1  UNL1        0.0520
     18 C         139.5933  139.9545  167.6669 C.ar    1  UNL1        0.1443
     19 H         141.3119  140.5600  172.0608 H       1  UNL1        0.1424
     20 H         139.6355  140.2813  171.9199 H       1  UNL1        0.1424
     21 O         138.3864  139.6973  166.8142 O.3     1  UNL1       -0.4712
     22 C         137.6595  138.3893  166.9182 C.3     1  UNL1        0.2525
     23 O         138.5082  139.0181  163.0932 O.3     1  UNL1       -0.3505
     24 C         138.8787  137.6344  163.5384 C.3     1  UNL1        0.1741
     25 C         140.8036  140.5466  158.6892 C.3     1  UNL1        0.0722
     26 C         142.2232  135.3142  156.1188 C.2     1  UNL1        0.4049
     27 O         143.5950  134.7361  156.3026 O.2     1  UNL1       -0.2262
     28 N         141.8683  136.6223  156.7614 N.am    1  UNL1       -0.2460
     29 C         140.4965  137.2005  156.5776 C.3     1  UNL1        0.0968
     30 C         140.1416  138.5085  157.2202 C.3     1  UNL1        0.0231
     31 C         141.1585  139.2385  158.0466 C.3     1  UNL1        0.0194
     32 C         142.5303  138.6604  158.2305 C.3     1  UNL1        0.0231
     33 C         142.8852  137.3523  157.5879 C.3     1  UNL1        0.0968
     34 O         141.2063  134.5843  155.2924 O.3     1  UNL1       -0.4345
     35 C         142.1618  132.5321  154.0173 C.3     1  UNL1        0.0513
     36 C         141.3107  133.0985  155.1150 C.3     1  UNL1        0.2102
@<TRIPOS>BOND
     1    35    36    1
     2    36    34    1
     3    34    26    1
     4    26    27    2
     5    26    28   am
     6    28    29    1
     7    29    30    1
     8    30    31    1
     9    31    25    1
    10    25     1    1
    11     1     2    1
    12     2     3    1
    13     3     4    1
    14     4     7    1
    15     7     8   am
    16     8     9    2
    17     8    11    1
    18    11    12   ar
    19    12    13   ar
    20    13    14    1
    21    13    15   ar
    22    15    16    1
    23    15    17   ar
    24    17    18   ar
    25    18    21    1
    26    21    22    1
    27     4     5    1
    28     5    23    1
    29    23    24    1
    30     5     6    1
    31    31    32    1
    32    32    33    1
    33    33    28    1
    34     6     1    1
    35    18    11   ar
    36     7    10    1
    37    16    19    1
    38    16    20    1
@<TRIPOS>MOLECULE
*****
 36 38 0 0 0
SMALL
GASTEIGER

@<TRIPOS>ATOM
      1 N         138.1736  140.9397  159.8757 N.3     1  UNL1       -0.2705
      2 C         138.2073  142.2465  160.6115 C.3     1  UNL1        0.0739
      3 C         138.2830  142.2621  162.1094 C.3     1  UNL1        0.0394
      4 C         138.3250  140.9709  162.8717 C.3     1  UNL1        0.1017
      5 C         138.2913  139.6642  162.1361 C.3     1  UNL1        0.1490
      6 C         138.2157  139.6486  160.6380 C.3     1  UNL1        0.1037
      7 N         138.4007  140.9866  164.3698 N.am    1  UNL1       -0.2999
      8 C         139.7259  141.1545  165.0521 C.2     1  UNL1        0.2488
      9 O         140.9755  141.3068  164.2364 O.2     1  UNL1       -0.2700
     10 H         137.5806  140.8866  164.9052 H       1  UNL1        0.1498
     11 C         139.8016  141.1701  166.5501 C.ar    1  UNL1        0.0882
     12 C         140.3997  142.3492  167.2586 C.ar    1  UNL1        0.0202
     13 C         140.4754  142.3648  168.7566 C.ar    1  UNL1        0.0709
     14 CL        141.0735  143.5439  169.4650 Cl      1  UNL1       -0.0810
     15 C         139.9529  141.2014  169.5461 C.ar    1  UNL1        0.0553
     16 N         140.0285  141.2170  171.0441 N.pl3   1  UNL1       -0.3563
     17 C         139.3547  140.0223  168.8376 C.ar    1  UNL1        0.0520
     18 C         139.2791  140.0066  167.3396 C.ar    1  UNL1        0.1443
     19 H         140.4211  141.9909  171.5091 H       1  UNL1        0.1424
     20 H         139.6856  140.4534  171.5623 H       1  UNL1        0.1424
     21 O         138.6809  138.8276  166.6311 O.3     1  UNL1       -0.4712
     22 C         137.4224  138.1991  167.1517 C.3     1  UNL1        0.2525
     23 O         138.3334  138.3730  162.8984 O.3     1  UNL1       -0.3505
     24 C         139.6516  137.7284  163.2096 C.3     1  UNL1        0.1741
     25 C         138.0979  140.9242  158.3777 C.3     1  UNL1        0.0722
     26 C         140.8952  145.1671  155.1882 C.2     1  UNL1        0.4049
     27 O         142.3877  145.2976  155.2599 O.2     1  UNL1       -0.2262
     28 N         140.1959  144.1064  155.9856 N.am    1  UNL1       -0.2460
     29 C         138.7033  143.9759  155.9139 C.3     1  UNL1        0.0968
     30 C         138.0040  142.9152  156.7113 C.3     1  UNL1        0.0231
     31 C         138.7972  141.9849  157.5804 C.3     1  UNL1        0.0194
     32 C         140.2898  142.1154  157.6521 C.3     1  UNL1        0.0231
     33 C         140.9891  143.1761  156.8547 C.3     1  UNL1        0.0968
     34 O         140.1019  146.0973  154.3191 O.3     1  UNL1       -0.4345
     35 C         139.0102  147.6554  156.0885 C.3     1  UNL1        0.0513
     36 C         139.7672  147.4761  154.8060 C.3     1  UNL1        0.2102
@<TRIPOS>BOND
     1    35    36    1
     2    36    34    1
     3    34    26    1
     4    26    27    2
     5    26    28   am
     6    28    29    1
     7    29    30    1
     8    30    31    1
     9    31    25    1
    10    25     1    1
    11     1     2    1
    12     2     3    1
    13     3     4    1
    14     4     7    1
    15     7     8   am
    16     8     9    2
    17     8    11    1
    18    11    12   ar
    19    12    13   ar
    20    13    14    1
    21    13    15   ar
    22    15    16    1
    23    15    17   ar
    24    17    18   ar
    25    18    21    1
    26    21    22    1
    27     4     5    1
    28     5    23    1
    29    23    24    1
    30     5     6    1
    31    31    32    1
    32    32    33    1
    33    33    28    1
    34     6     1    1
    35    18    11   ar
    36     7    10    1
    37    16    19    1
    38    16    20    1
