@<TRIPOS>MOLECULE
*****
 39 44 0 0 0
SMALL
GASTEIGER

@<TRIPOS>ATOM
      1 C         141.0369  145.2548  159.8949 C.3     1  UNL1        0.0280
      2 C         140.3196  145.5456  161.1799 C.3     1  UNL1        0.0584
      3 C         139.3712  146.7047  161.2638 C.3     1  UNL1        0.0174
      4 C         141.8133  139.9346  168.9405 C.ar    1  UNL1        0.2057
      5 N         140.8463  141.0779  168.8520 N.ar    1  UNL1       -0.2121
      6 C         140.9439  141.6620  167.4740 C.ar    1  UNL1        0.1179
      7 C         140.2300  142.8052  166.8155 C.ar    1  UNL1        0.0178
      8 C         140.5435  143.1661  165.3936 C.ar    1  UNL1       -0.0233
      9 C         141.5708  142.3838  164.6304 C.ar    1  UNL1       -0.0256
     10 C         142.2847  141.2407  165.2888 C.ar    1  UNL1        0.0101
     11 C         143.3121  140.4584  164.5255 C.3     1  UNL1        0.0339
     12 C         141.9713  140.8798  166.7106 C.ar    1  UNL1        0.1600
     13 O         142.5085  139.8122  167.6170 O.2     1  UNL1       -0.4387
     14 C         142.0307  142.5750  163.2154 C.3     1  UNL1        0.0431
     15 C         141.5766  143.5957  162.2143 C.3     1  UNL1        0.0768
     16 N         140.5508  144.6772  162.3810 N.3     1  UNL1       -0.2733
     17 C         139.7255  145.0053  163.5898 C.3     1  UNL1        0.0768
     18 C         139.7222  144.3327  164.9306 C.3     1  UNL1        0.0434
     19 C         143.1272  138.0284  170.1194 C.3     1  UNL1        0.0102
     20 C         142.0445  139.0663  170.1416 C.3     1  UNL1        0.0853
     21 C         140.2559  145.0344  158.6334 C.3     1  UNL1        0.0665
     22 S         139.8923  143.6422  158.2100 S.3     1  UNL1       -0.0756
     23 C         139.5031  142.6228  159.2392 C.ar    1  UNL1        0.1932
     24 N         138.1346  142.4398  159.8255 N.ar    1  UNL1       -0.1221
     25 N         138.1999  141.3112  160.8114 N.ar    1  UNL1       -0.1282
     26 C         139.6087  140.7967  160.8345 C.ar    1  UNL1        0.1669
     27 N         140.4141  141.6073  159.8628 N.ar    1  UNL1       -0.2884
     28 C         141.8742  141.4330  159.5666 C.3     1  UNL1        0.1340
     29 C         140.1219  139.6695  161.6806 C.ar    1  UNL1        0.0374
     30 C         141.1175  138.7003  161.1153 C.ar    1  UNL1        0.0031
     31 C         141.6307  137.5731  161.9614 C.ar    1  UNL1        0.0016
     32 C         141.1484  137.4151  163.3730 C.ar    1  UNL1        0.0191
     33 C         140.1528  138.3843  163.9384 C.ar    1  UNL1        0.0810
     34 N         139.6705  138.2262  165.3499 N.ar    1  UNL1       -0.2497
     35 C         138.6750  139.1954  165.9152 C.ar    1  UNL1        0.0593
     36 C         138.1927  139.0374  167.3267 C.3     1  UNL1        0.0521
     37 C         138.1617  140.3226  165.0691 C.ar    1  UNL1        0.0147
     38 C         138.6441  140.4806  163.6576 C.ar    1  UNL1        0.0028
     39 C         139.6396  139.5114  163.0922 C.ar    1  UNL1        0.0206
@<TRIPOS>BOND
     1    19    20    1
     2    20     4    1
     3     4     5   ar
     4     5     6   ar
     5     6     7   ar
     6     7     8   ar
     7     8     9   ar
     8     9    10   ar
     9    10    11    1
    10    10    12   ar
    11    12    13   ar
    12     9    14    1
    13    14    15    1
    14    15    16    1
    15    16     2    1
    16     2     3    1
    17     2     1    1
    18     1    21    1
    19    21    22    1
    20    22    23    1
    21    23    24   ar
    22    24    25   ar
    23    25    26   ar
    24    26    29    1
    25    29    30   ar
    26    30    31   ar
    27    31    32   ar
    28    32    33   ar
    29    33    34   ar
    30    34    35   ar
    31    35    36    1
    32    35    37   ar
    33    37    38   ar
    34    38    39   ar
    35    26    27   ar
    36    27    28    1
    37    16    17    1
    38    17    18    1
    39    13     4   ar
    40    27    23   ar
    41    12     6   ar
    42    39    29   ar
    43    18     8    1
    44    39    33   ar
@<TRIPOS>MOLECULE
*****
 39 44 0 0 0
SMALL
GASTEIGER

@<TRIPOS>ATOM
      1 C         139.6155  138.3920  158.6347 C.3     1  UNL1        0.0280
      2 C         139.0729  139.6264  159.2920 C.3     1  UNL1        0.0584
      3 C         138.4555  140.7101  158.4586 C.3     1  UNL1        0.0174
      4 C         139.5555  140.5993  168.9232 C.ar    1  UNL1        0.2057
      5 N         138.9421  139.4479  168.1830 N.ar    1  UNL1       -0.2121
      6 C         139.0886  139.7107  166.7135 C.ar    1  UNL1        0.1179
      7 C         138.6719  138.9233  165.5066 C.ar    1  UNL1        0.0178
      8 C         138.9592  139.4499  164.1317 C.ar    1  UNL1       -0.0233
      9 C         139.6632  140.7636  163.9638 C.ar    1  UNL1       -0.0256
     10 C         140.0799  141.5510  165.1706 C.ar    1  UNL1        0.0101
     11 C         140.7839  142.8649  165.0026 C.3     1  UNL1        0.0339
     12 C         139.7926  141.0245  166.5455 C.ar    1  UNL1        0.1600
     13 O         140.0812  141.5737  167.9112 O.2     1  UNL1       -0.4387
     14 C         140.0438  141.4652  162.6937 C.3     1  UNL1        0.0431
     15 C         139.8142  141.0259  161.2778 C.3     1  UNL1        0.0768
     16 N         139.1476  139.7770  160.7825 N.3     1  UNL1       -0.2733
     17 C         138.5457  138.6585  161.5806 C.3     1  UNL1        0.0768
     18 C         138.4619  138.5130  163.0712 C.3     1  UNL1        0.0434
     19 C         140.9054  141.2063  171.0585 C.3     1  UNL1        0.0102
     20 C         139.6302  140.7499  170.4138 C.3     1  UNL1        0.0853
     21 C         140.5682  138.5130  157.4824 C.3     1  UNL1        0.0665
     22 S         142.0327  138.2650  157.6909 S.3     1  UNL1       -0.0756
     23 C         142.6269  138.3907  159.0624 C.ar    1  UNL1        0.1932
     24 N         143.0846  137.2577  159.9323 N.ar    1  UNL1       -0.1221
     25 N         143.6083  137.8383  161.2124 N.ar    1  UNL1       -0.1282
     26 C         143.4743  139.3303  161.1337 C.ar    1  UNL1        0.1669
     27 N         142.8678  139.6716  159.8050 N.ar    1  UNL1       -0.2884
     28 C         142.5567  141.0517  159.3062 C.3     1  UNL1        0.1340
     29 C         143.8762  140.3089  162.1970 C.ar    1  UNL1        0.0374
     30 C         144.5903  141.5734  161.8212 C.ar    1  UNL1        0.0031
     31 C         144.9923  142.5521  162.8845 C.ar    1  UNL1        0.0016
     32 C         144.6801  142.2663  164.3237 C.ar    1  UNL1        0.0191
     33 C         143.9660  141.0018  164.6994 C.ar    1  UNL1        0.0810
     34 N         143.6538  140.7160  166.1384 N.ar    1  UNL1       -0.2497
     35 C         142.9397  139.4515  166.5142 C.ar    1  UNL1        0.0593
     36 C         142.6275  139.1657  167.9532 C.3     1  UNL1        0.0521
     37 C         142.5378  138.4729  165.4508 C.ar    1  UNL1        0.0147
     38 C         142.8499  138.7587  164.0118 C.ar    1  UNL1        0.0028
     39 C         143.5640  140.0231  163.6361 C.ar    1  UNL1        0.0206
@<TRIPOS>BOND
     1    19    20    1
     2    20     4    1
     3     4     5   ar
     4     5     6   ar
     5     6     7   ar
     6     7     8   ar
     7     8     9   ar
     8     9    10   ar
     9    10    11    1
    10    10    12   ar
    11    12    13   ar
    12     9    14    1
    13    14    15    1
    14    15    16    1
    15    16     2    1
    16     2     3    1
    17     2     1    1
    18     1    21    1
    19    21    22    1
    20    22    23    1
    21    23    24   ar
    22    24    25   ar
    23    25    26   ar
    24    26    29    1
    25    29    30   ar
    26    30    31   ar
    27    31    32   ar
    28    32    33   ar
    29    33    34   ar
    30    34    35   ar
    31    35    36    1
    32    35    37   ar
    33    37    38   ar
    34    38    39   ar
    35    26    27   ar
    36    27    28    1
    37    16    17    1
    38    17    18    1
    39    13     4   ar
    40    27    23   ar
    41    12     6   ar
    42    39    29   ar
    43    18     8    1
    44    39    33   ar
@<TRIPOS>MOLECULE
*****
 39 44 0 0 0
SMALL
GASTEIGER

@<TRIPOS>ATOM
      1 C         142.8377  142.3299  157.8022 C.3     1  UNL1        0.0280
      2 C         143.9563  142.4471  158.7947 C.3     1  UNL1        0.0584
      3 C         145.3728  142.5721  158.3171 C.3     1  UNL1        0.0174
      4 C         142.0315  142.3970  168.2938 C.ar    1  UNL1        0.2057
      5 N         143.3836  142.5748  167.6691 N.ar    1  UNL1       -0.2121
      6 C         143.2173  142.5160  166.1796 C.ar    1  UNL1        0.1179
      7 C         144.2027  142.6298  165.0543 C.ar    1  UNL1        0.0178
      8 C         143.7332  142.5294  163.6332 C.ar    1  UNL1       -0.0233
      9 C         142.2785  142.3153  163.3374 C.ar    1  UNL1       -0.0256
     10 C         141.2930  142.2015  164.4625 C.ar    1  UNL1        0.0101
     11 C         139.8382  141.9873  164.1665 C.3     1  UNL1        0.0339
     12 C         141.7625  142.3018  165.8836 C.ar    1  UNL1        0.1600
     13 O         141.0296  142.2283  167.1903 O.2     1  UNL1       -0.4387
     14 C         141.6042  142.1878  162.0034 C.3     1  UNL1        0.0431
     15 C         142.2185  142.2430  160.6360 C.3     1  UNL1        0.0768
     16 N         143.6584  142.4393  160.2648 N.3     1  UNL1       -0.2733
     17 C         144.8399  142.6290  161.1693 C.3     1  UNL1        0.0768
     18 C         144.8733  142.6691  162.6684 C.3     1  UNL1        0.0434
     19 C         140.3115  142.3772  170.2410 C.3     1  UNL1        0.0102
     20 C         141.7336  142.3892  169.7640 C.3     1  UNL1        0.0853
     21 C         142.9515  141.3717  156.6537 C.3     1  UNL1        0.0665
     22 S         142.3277  140.0108  156.7478 S.3     1  UNL1       -0.0756
     23 C         142.2623  139.3055  158.0700 C.ar    1  UNL1        0.1932
     24 N         143.2989  138.3740  158.6247 N.ar    1  UNL1       -0.1221
     25 N         142.8259  137.9007  159.9672 N.ar    1  UNL1       -0.1282
     26 C         141.4970  138.5397  160.2422 C.ar    1  UNL1        0.1669
     27 N         141.1487  139.4079  159.0697 N.ar    1  UNL1       -0.2884
     28 C         139.9050  140.2336  158.9227 C.3     1  UNL1        0.1340
     29 C         140.6628  138.3447  161.4736 C.ar    1  UNL1        0.0374
     30 C         139.2034  138.0220  161.3475 C.ar    1  UNL1        0.0031
     31 C         138.3693  137.8270  162.5788 C.ar    1  UNL1        0.0016
     32 C         138.9947  137.9548  163.9363 C.ar    1  UNL1        0.0191
     33 C         140.4541  138.2775  164.0624 C.ar    1  UNL1        0.0810
     34 N         141.0794  138.4053  165.4198 N.ar    1  UNL1       -0.2497
     35 C         142.5388  138.7281  165.5459 C.ar    1  UNL1        0.0593
     36 C         143.1642  138.8558  166.9033 C.3     1  UNL1        0.0521
     37 C         143.3730  138.9230  164.3146 C.ar    1  UNL1        0.0147
     38 C         142.7476  138.7953  162.9571 C.ar    1  UNL1        0.0028
     39 C         141.2882  138.4725  162.8311 C.ar    1  UNL1        0.0206
@<TRIPOS>BOND
     1    19    20    1
     2    20     4    1
     3     4     5   ar
     4     5     6   ar
     5     6     7   ar
     6     7     8   ar
     7     8     9   ar
     8     9    10   ar
     9    10    11    1
    10    10    12   ar
    11    12    13   ar
    12     9    14    1
    13    14    15    1
    14    15    16    1
    15    16     2    1
    16     2     3    1
    17     2     1    1
    18     1    21    1
    19    21    22    1
    20    22    23    1
    21    23    24   ar
    22    24    25   ar
    23    25    26   ar
    24    26    29    1
    25    29    30   ar
    26    30    31   ar
    27    31    32   ar
    28    32    33   ar
    29    33    34   ar
    30    34    35   ar
    31    35    36    1
    32    35    37   ar
    33    37    38   ar
    34    38    39   ar
    35    26    27   ar
    36    27    28    1
    37    16    17    1
    38    17    18    1
    39    13     4   ar
    40    27    23   ar
    41    12     6   ar
    42    39    29   ar
    43    18     8    1
    44    39    33   ar
@<TRIPOS>MOLECULE
*****
 39 44 0 0 0
SMALL
GASTEIGER

@<TRIPOS>ATOM
      1 C         140.6411  140.8377  168.0762 C.3     1  UNL1        0.0280
      2 C         140.6171  142.3121  167.8014 C.3     1  UNL1        0.0584
      3 C         140.5117  143.2853  168.9380 C.3     1  UNL1        0.0174
      4 C         141.1430  145.5508  158.6813 C.ar    1  UNL1        0.2057
      5 N         139.9839  145.7323  159.6160 N.ar    1  UNL1       -0.2121
      6 C         140.3310  145.0738  160.9182 C.ar    1  UNL1        0.1179
      7 C         139.5737  144.9340  162.2055 C.ar    1  UNL1        0.0178
      8 C         140.1901  144.2056  163.3629 C.ar    1  UNL1       -0.0233
      9 C         141.5635  143.6171  163.2331 C.ar    1  UNL1       -0.0256
     10 C         142.3209  143.7568  161.9459 C.ar    1  UNL1        0.0101
     11 C         143.6944  143.1682  161.8161 C.3     1  UNL1        0.0339
     12 C         141.7046  144.4851  160.7884 C.ar    1  UNL1        0.1600
     13 O         142.2064  144.7800  159.4059 O.2     1  UNL1       -0.4387
     14 C         142.3564  142.8582  164.2557 C.3     1  UNL1        0.0431
     15 C         141.9713  142.5005  165.6607 C.3     1  UNL1        0.0768
     16 N         140.6985  142.8133  166.3899 N.3     1  UNL1       -0.2733
     17 C         139.4962  143.5611  165.8945 C.3     1  UNL1        0.0768
     18 C         139.2700  144.1807  164.5473 C.3     1  UNL1        0.0434
     19 C         139.9946  146.5726  156.5868 C.3     1  UNL1        0.0102
     20 C         141.2244  146.0520  157.2699 C.3     1  UNL1        0.0853
     21 C         139.3545  140.0752  168.1914 C.3     1  UNL1        0.0665
     22 S         138.8837  139.2220  167.0512 S.3     1  UNL1       -0.0756
     23 C         138.9953  139.7246  165.6424 C.ar    1  UNL1        0.1932
     24 N         137.9662  140.5346  164.9110 N.ar    1  UNL1       -0.1221
     25 N         138.4907  140.8160  163.5341 N.ar    1  UNL1       -0.1282
     26 C         139.8438  140.1799  163.4145 C.ar    1  UNL1        0.1669
     27 N         140.1557  139.5054  164.7174 N.ar    1  UNL1       -0.2884
     28 C         141.4081  138.7451  165.0390 C.3     1  UNL1        0.1340
     29 C         140.7295  140.2126  162.2044 C.ar    1  UNL1        0.0374
     30 C         142.0768  139.5543  162.2430 C.ar    1  UNL1        0.0031
     31 C         142.9626  139.5870  161.0329 C.ar    1  UNL1        0.0016
     32 C         142.5010  140.2780  159.7840 C.ar    1  UNL1        0.0191
     33 C         141.1537  140.9363  159.7454 C.ar    1  UNL1        0.0810
     34 N         140.6921  141.6273  158.4966 N.ar    1  UNL1       -0.2497
     35 C         139.3449  142.2856  158.4579 C.ar    1  UNL1        0.0593
     36 C         138.8833  142.9765  157.2091 C.3     1  UNL1        0.0521
     37 C         138.4591  142.2529  159.6680 C.ar    1  UNL1        0.0147
     38 C         138.9207  141.5619  160.9168 C.ar    1  UNL1        0.0028
     39 C         140.2680  140.9036  160.9555 C.ar    1  UNL1        0.0206
@<TRIPOS>BOND
     1    19    20    1
     2    20     4    1
     3     4     5   ar
     4     5     6   ar
     5     6     7   ar
     6     7     8   ar
     7     8     9   ar
     8     9    10   ar
     9    10    11    1
    10    10    12   ar
    11    12    13   ar
    12     9    14    1
    13    14    15    1
    14    15    16    1
    15    16     2    1
    16     2     3    1
    17     2     1    1
    18     1    21    1
    19    21    22    1
    20    22    23    1
    21    23    24   ar
    22    24    25   ar
    23    25    26   ar
    24    26    29    1
    25    29    30   ar
    26    30    31   ar
    27    31    32   ar
    28    32    33   ar
    29    33    34   ar
    30    34    35   ar
    31    35    36    1
    32    35    37   ar
    33    37    38   ar
    34    38    39   ar
    35    26    27   ar
    36    27    28    1
    37    16    17    1
    38    17    18    1
    39    13     4   ar
    40    27    23   ar
    41    12     6   ar
    42    39    29   ar
    43    18     8    1
    44    39    33   ar
@<TRIPOS>MOLECULE
*****
 39 44 0 0 0
SMALL
GASTEIGER

@<TRIPOS>ATOM
      1 C         139.7734  138.6113  158.6663 C.3     1  UNL1        0.0280
      2 C         141.1032  138.3545  159.3112 C.3     1  UNL1        0.0584
      3 C         142.2705  137.9198  158.4754 C.3     1  UNL1        0.0174
      4 C         142.1530  139.5049  168.8775 C.ar    1  UNL1        0.2057
      5 N         143.2064  139.0176  167.9272 N.ar    1  UNL1       -0.2121
      6 C         142.6130  138.9945  166.5498 C.ar    1  UNL1        0.1179
      7 C         143.1824  138.6038  165.2181 C.ar    1  UNL1        0.0178
      8 C         142.3316  138.6861  163.9854 C.ar    1  UNL1       -0.0233
      9 C         140.9116  139.1590  164.0844 C.ar    1  UNL1       -0.0256
     10 C         140.3422  139.5496  165.4160 C.ar    1  UNL1        0.0101
     11 C         138.9221  140.0225  165.5150 C.3     1  UNL1        0.0339
     12 C         141.1929  139.4674  166.6488 C.ar    1  UNL1        0.1600
     13 O         140.9087  139.7828  168.0874 O.2     1  UNL1       -0.4387
     14 C         139.8991  139.3147  162.9886 C.3     1  UNL1        0.0431
     15 C         140.0567  139.0358  161.5231 C.3     1  UNL1        0.0768
     16 N         141.2656  138.5326  160.7917 N.3     1  UNL1       -0.2733
     17 C         142.6156  138.1837  161.3449 C.3     1  UNL1        0.0768
     18 C         143.0900  138.2521  162.7662 C.3     1  UNL1        0.0434
     19 C         142.0168  141.0096  170.9912 C.3     1  UNL1        0.0102
     20 C         142.3155  139.6829  170.3581 C.3     1  UNL1        0.0853
     21 C         139.6899  139.4581  157.4310 C.3     1  UNL1        0.0665
     22 S         139.1429  140.8523  157.5131 S.3     1  UNL1       -0.0756
     23 C         139.5515  141.7531  158.6407 C.ar    1  UNL1        0.1932
     24 N         140.6691  142.7532  158.6097 N.ar    1  UNL1       -0.1221
     25 N         140.7225  143.4302  159.9472 N.ar    1  UNL1       -0.1282
     26 C         139.6379  142.8486  160.8048 C.ar    1  UNL1        0.1669
     27 N         138.9143  141.8122  159.9973 N.ar    1  UNL1       -0.2884
     28 C         137.7565  140.9806  160.4644 C.3     1  UNL1        0.1340
     29 C         139.3309  143.2355  162.2211 C.ar    1  UNL1        0.0374
     30 C         137.9888  143.8086  162.5680 C.ar    1  UNL1        0.0031
     31 C         137.6819  144.1956  163.9843 C.ar    1  UNL1        0.0016
     32 C         138.7170  144.0093  165.0539 C.ar    1  UNL1        0.0191
     33 C         140.0591  143.4362  164.7070 C.ar    1  UNL1        0.0810
     34 N         141.0942  143.2499  165.7765 N.ar    1  UNL1       -0.2497
     35 C         142.4363  142.6767  165.4297 C.ar    1  UNL1        0.0593
     36 C         143.4714  142.4905  166.4992 C.3     1  UNL1        0.0521
     37 C         142.7433  142.2898  164.0134 C.ar    1  UNL1        0.0147
     38 C         141.7082  142.4761  162.9439 C.ar    1  UNL1        0.0028
     39 C         140.3661  143.0492  163.2907 C.ar    1  UNL1        0.0206
@<TRIPOS>BOND
     1    19    20    1
     2    20     4    1
     3     4     5   ar
     4     5     6   ar
     5     6     7   ar
     6     7     8   ar
     7     8     9   ar
     8     9    10   ar
     9    10    11    1
    10    10    12   ar
    11    12    13   ar
    12     9    14    1
    13    14    15    1
    14    15    16    1
    15    16     2    1
    16     2     3    1
    17     2     1    1
    18     1    21    1
    19    21    22    1
    20    22    23    1
    21    23    24   ar
    22    24    25   ar
    23    25    26   ar
    24    26    29    1
    25    29    30   ar
    26    30    31   ar
    27    31    32   ar
    28    32    33   ar
    29    33    34   ar
    30    34    35   ar
    31    35    36    1
    32    35    37   ar
    33    37    38   ar
    34    38    39   ar
    35    26    27   ar
    36    27    28    1
    37    16    17    1
    38    17    18    1
    39    13     4   ar
    40    27    23   ar
    41    12     6   ar
    42    39    29   ar
    43    18     8    1
    44    39    33   ar
@<TRIPOS>MOLECULE
*****
 39 44 0 0 0
SMALL
GASTEIGER

@<TRIPOS>ATOM
      1 C         138.6130  142.8281  158.5829 C.3     1  UNL1        0.0280
      2 C         138.4007  141.4820  159.2098 C.3     1  UNL1        0.0584
      3 C         137.9950  140.3144  158.3599 C.3     1  UNL1        0.0174
      4 C         139.6499  140.3285  168.7518 C.ar    1  UNL1        0.2057
      5 N         139.1188  139.2970  167.8010 N.ar    1  UNL1       -0.2121
      6 C         139.0944  139.9008  166.4282 C.ar    1  UNL1        0.1179
      7 C         138.6689  139.3530  165.0981 C.ar    1  UNL1        0.0178
      8 C         138.7595  140.2101  163.8703 C.ar    1  UNL1       -0.0233
      9 C         139.2755  141.6147  163.9726 C.ar    1  UNL1       -0.0256
     10 C         139.7010  142.1625  165.3026 C.ar    1  UNL1        0.0101
     11 C         140.2170  143.5673  165.4048 C.3     1  UNL1        0.0339
     12 C         139.6104  141.3056  166.5304 C.ar    1  UNL1        0.1600
     13 O         139.9537  141.5698  167.9665 O.2     1  UNL1       -0.4387
     14 C         139.4461  142.6302  162.8818 C.3     1  UNL1        0.0431
     15 C         139.1428  142.4916  161.4193 C.3     1  UNL1        0.0768
     16 N         138.5940  141.3035  160.6865 N.3     1  UNL1       -0.2733
     17 C         138.2130  139.9604  161.2351 C.3     1  UNL1        0.0768
     18 C         138.2866  139.4737  162.6521 C.3     1  UNL1        0.0434
     19 C         140.7237  141.0965  170.9895 C.3     1  UNL1        0.0102
     20 C         139.8433  140.1500  170.2285 C.3     1  UNL1        0.0853
     21 C         139.5413  142.9728  157.4135 C.3     1  UNL1        0.0665
     22 S         140.9284  143.5053  157.6186 S.3     1  UNL1       -0.0756
     23 C         141.7552  143.0199  158.7722 C.ar    1  UNL1        0.1932
     24 N         142.6078  141.7859  158.7883 N.ar    1  UNL1       -0.1221
     25 N         143.2542  141.6867  160.1384 N.ar    1  UNL1       -0.1282
     26 C         142.8010  142.8595  160.9565 C.ar    1  UNL1        0.1669
     27 N         141.8747  143.6834  160.1122 N.ar    1  UNL1       -0.2884
     28 C         141.1881  144.9487  160.5338 C.3     1  UNL1        0.1340
     29 C         143.2035  143.1561  162.3707 C.ar    1  UNL1        0.0374
     30 C         143.7195  144.5170  162.7339 C.ar    1  UNL1        0.0031
     31 C         144.1221  144.8136  164.1481 C.ar    1  UNL1        0.0016
     32 C         144.0086  143.7494  165.1992 C.ar    1  UNL1        0.0191
     33 C         143.4926  142.3886  164.8360 C.ar    1  UNL1        0.0810
     34 N         143.3792  141.3244  165.8870 N.ar    1  UNL1       -0.2497
     35 C         142.8632  139.9636  165.5238 C.ar    1  UNL1        0.0593
     36 C         142.7497  138.8994  166.5748 C.3     1  UNL1        0.0521
     37 C         142.4606  139.6669  164.1096 C.ar    1  UNL1        0.0147
     38 C         142.5741  140.7311  163.0586 C.ar    1  UNL1        0.0028
     39 C         143.0901  142.0919  163.4218 C.ar    1  UNL1        0.0206
@<TRIPOS>BOND
     1    19    20    1
     2    20     4    1
     3     4     5   ar
     4     5     6   ar
     5     6     7   ar
     6     7     8   ar
     7     8     9   ar
     8     9    10   ar
     9    10    11    1
    10    10    12   ar
    11    12    13   ar
    12     9    14    1
    13    14    15    1
    14    15    16    1
    15    16     2    1
    16     2     3    1
    17     2     1    1
    18     1    21    1
    19    21    22    1
    20    22    23    1
    21    23    24   ar
    22    24    25   ar
    23    25    26   ar
    24    26    29    1
    25    29    30   ar
    26    30    31   ar
    27    31    32   ar
    28    32    33   ar
    29    33    34   ar
    30    34    35   ar
    31    35    36    1
    32    35    37   ar
    33    37    38   ar
    34    38    39   ar
    35    26    27   ar
    36    27    28    1
    37    16    17    1
    38    17    18    1
    39    13     4   ar
    40    27    23   ar
    41    12     6   ar
    42    39    29   ar
    43    18     8    1
    44    39    33   ar
@<TRIPOS>MOLECULE
*****
 39 44 0 0 0
SMALL
GASTEIGER

@<TRIPOS>ATOM
      1 C         140.8194  143.7090  157.0687 C.3     1  UNL1        0.0280
      2 C         141.5817  144.5426  158.0557 C.3     1  UNL1        0.0584
      3 C         142.1685  145.8567  157.6326 C.3     1  UNL1        0.0174
      4 C         142.7154  141.4377  167.1670 C.ar    1  UNL1        0.2057
      5 N         141.9209  142.6347  166.7358 N.ar    1  UNL1       -0.2121
      6 C         142.0181  142.7424  165.2429 C.ar    1  UNL1        0.1179
      7 C         141.4389  143.7238  164.2675 C.ar    1  UNL1        0.0178
      8 C         141.7142  143.5746  162.8005 C.ar    1  UNL1       -0.0233
      9 C         142.5688  142.4442  162.3090 C.ar    1  UNL1       -0.0256
     10 C         143.1480  141.4628  163.2843 C.ar    1  UNL1        0.0101
     11 C         144.0026  140.3323  162.7927 C.3     1  UNL1        0.0339
     12 C         142.8727  141.6119  164.7513 C.ar    1  UNL1        0.1600
     13 O         143.3036  140.8055  165.9405 O.2     1  UNL1       -0.4387
     14 C         142.9644  142.1150  160.9000 C.3     1  UNL1        0.0431
     15 C         142.6032  142.8351  159.6347 C.3     1  UNL1        0.0768
     16 N         141.7572  144.0620  159.4658 N.3     1  UNL1       -0.2733
     17 C         141.0633  144.8721  160.5205 C.3     1  UNL1        0.0768
     18 C         141.0442  144.6552  162.0046 C.3     1  UNL1        0.0434
     19 C         143.3504  141.9085  169.6419 C.3     1  UNL1        0.0102
     20 C         142.8909  140.9571  168.5771 C.3     1  UNL1        0.0853
     21 C         139.3259  143.8222  156.9867 C.3     1  UNL1        0.0665
     22 S         138.4593  142.7382  157.5556 S.3     1  UNL1       -0.0756
     23 C         138.6790  142.2623  158.9610 C.ar    1  UNL1        0.1932
     24 N         138.1608  142.9197  160.2057 N.ar    1  UNL1       -0.1221
     25 N         138.6171  142.1090  161.3824 N.ar    1  UNL1       -0.1282
     26 C         139.4173  140.9506  160.8650 C.ar    1  UNL1        0.1669
     27 N         139.4555  141.0453  159.3685 N.ar    1  UNL1       -0.2884
     28 C         140.1487  140.0907  158.4421 C.3     1  UNL1        0.1340
     29 C         140.0654  139.8846  161.6978 C.ar    1  UNL1        0.0374
     30 C         140.9007  138.8250  161.0424 C.ar    1  UNL1        0.0031
     31 C         141.5488  137.7591  161.8753 C.ar    1  UNL1        0.0016
     32 C         141.3616  137.7527  163.3636 C.ar    1  UNL1        0.0191
     33 C         140.5263  138.8122  164.0190 C.ar    1  UNL1        0.0810
     34 N         140.3391  138.8058  165.5072 N.ar    1  UNL1       -0.2497
     35 C         139.5037  139.8654  166.1626 C.ar    1  UNL1        0.0593
     36 C         139.3165  139.8590  167.6509 C.3     1  UNL1        0.0521
     37 C         138.8556  140.9314  165.3298 C.ar    1  UNL1        0.0147
     38 C         139.0429  140.9378  163.8415 C.ar    1  UNL1        0.0028
     39 C         139.8782  139.8782  163.1862 C.ar    1  UNL1        0.0206
@<TRIPOS>BOND
     1    19    20    1
     2    20     4    1
     3     4     5   ar
     4     5     6   ar
     5     6     7   ar
     6     7     8   ar
     7     8     9   ar
     8     9    10   ar
     9    10    11    1
    10    10    12   ar
    11    12    13   ar
    12     9    14    1
    13    14    15    1
    14    15    16    1
    15    16     2    1
    16     2     3    1
    17     2     1    1
    18     1    21    1
    19    21    22    1
    20    22    23    1
    21    23    24   ar
    22    24    25   ar
    23    25    26   ar
    24    26    29    1
    25    29    30   ar
    26    30    31   ar
    27    31    32   ar
    28    32    33   ar
    29    33    34   ar
    30    34    35   ar
    31    35    36    1
    32    35    37   ar
    33    37    38   ar
    34    38    39   ar
    35    26    27   ar
    36    27    28    1
    37    16    17    1
    38    17    18    1
    39    13     4   ar
    40    27    23   ar
    41    12     6   ar
    42    39    29   ar
    43    18     8    1
    44    39    33   ar
@<TRIPOS>MOLECULE
*****
 39 44 0 0 0
SMALL
GASTEIGER

@<TRIPOS>ATOM
      1 C         139.9960  138.7514  158.5847 C.3     1  UNL1        0.0280
      2 C         141.3953  138.6986  159.1225 C.3     1  UNL1        0.0584
      3 C         142.5336  138.3327  158.2166 C.3     1  UNL1        0.0174
      4 C         143.0819  140.7213  168.4501 C.ar    1  UNL1        0.2057
      5 N         142.6192  139.4033  167.9034 N.ar    1  UNL1       -0.2121
      6 C         142.4891  139.5387  166.4152 C.ar    1  UNL1        0.1179
      7 C         142.0719  138.5668  165.3516 C.ar    1  UNL1        0.0178
      8 C         142.0370  138.9966  163.9148 C.ar    1  UNL1       -0.0233
      9 C         142.4193  140.3981  163.5418 C.ar    1  UNL1       -0.0256
     10 C         142.8365  141.3701  164.6054 C.ar    1  UNL1        0.0101
     11 C         143.2188  142.7718  164.2323 C.3     1  UNL1        0.0339
     12 C         142.8714  140.9404  166.0421 C.ar    1  UNL1        0.1600
     13 O         143.2378  141.6712  167.2998 O.2     1  UNL1       -0.4387
     14 C         142.4536  141.0274  162.1806 C.3     1  UNL1        0.0431
     15 C         142.1140  140.4102  160.8562 C.3     1  UNL1        0.0768
     16 N         141.6564  139.0117  160.5660 N.3     1  UNL1       -0.2733
     17 C         141.4251  137.8846  161.5285 C.3     1  UNL1        0.0768
     18 C         141.5945  137.8779  163.0189 C.3     1  UNL1        0.0434
     19 C         142.7029  140.2063  170.9683 C.3     1  UNL1        0.0102
     20 C         143.3429  141.0343  169.8937 C.3     1  UNL1        0.0853
     21 C         139.3397  140.0760  158.3304 C.3     1  UNL1        0.0665
     22 S         138.2174  140.5384  159.2114 S.3     1  UNL1       -0.0756
     23 C         138.4808  140.8681  160.6508 C.ar    1  UNL1        0.1932
     24 N         138.9117  142.2018  161.1853 N.ar    1  UNL1       -0.1221
     25 N         139.0567  142.0800  162.6733 N.ar    1  UNL1       -0.1282
     26 C         138.7155  140.6710  163.0585 C.ar    1  UNL1        0.1669
     27 N         138.3596  139.9221  161.8086 N.ar    1  UNL1       -0.2884
     28 C         137.9536  138.4801  161.7300 C.3     1  UNL1        0.1340
     29 C         138.7280  140.1095  164.4494 C.ar    1  UNL1        0.0374
     30 C         138.2898  138.6955  164.6914 C.ar    1  UNL1        0.0031
     31 C         138.3024  138.1341  166.0823 C.ar    1  UNL1        0.0016
     32 C         138.7531  138.9867  167.2313 C.ar    1  UNL1        0.0191
     33 C         139.1913  140.4007  166.9892 C.ar    1  UNL1        0.0810
     34 N         139.6420  141.2533  168.1381 N.ar    1  UNL1       -0.2497
     35 C         140.0801  142.6673  167.8961 C.ar    1  UNL1        0.0593
     36 C         140.5308  143.5199  169.0450 C.3     1  UNL1        0.0521
     37 C         140.0676  143.2288  166.5052 C.ar    1  UNL1        0.0147
     38 C         139.6169  142.3762  165.3563 C.ar    1  UNL1        0.0028
     39 C         139.1787  140.9622  165.5983 C.ar    1  UNL1        0.0206
@<TRIPOS>BOND
     1    19    20    1
     2    20     4    1
     3     4     5   ar
     4     5     6   ar
     5     6     7   ar
     6     7     8   ar
     7     8     9   ar
     8     9    10   ar
     9    10    11    1
    10    10    12   ar
    11    12    13   ar
    12     9    14    1
    13    14    15    1
    14    15    16    1
    15    16     2    1
    16     2     3    1
    17     2     1    1
    18     1    21    1
    19    21    22    1
    20    22    23    1
    21    23    24   ar
    22    24    25   ar
    23    25    26   ar
    24    26    29    1
    25    29    30   ar
    26    30    31   ar
    27    31    32   ar
    28    32    33   ar
    29    33    34   ar
    30    34    35   ar
    31    35    36    1
    32    35    37   ar
    33    37    38   ar
    34    38    39   ar
    35    26    27   ar
    36    27    28    1
    37    16    17    1
    38    17    18    1
    39    13     4   ar
    40    27    23   ar
    41    12     6   ar
    42    39    29   ar
    43    18     8    1
    44    39    33   ar
@<TRIPOS>MOLECULE
*****
 39 44 0 0 0
SMALL
GASTEIGER

@<TRIPOS>ATOM
      1 C         143.1045  143.1905  157.5111 C.3     1  UNL1        0.0280
      2 C         144.0811  142.6708  158.5241 C.3     1  UNL1        0.0584
      3 C         145.5257  142.5034  158.1561 C.3     1  UNL1        0.0174
      4 C         141.0577  140.3947  167.4470 C.ar    1  UNL1        0.2057
      5 N         141.7435  139.4697  166.4857 N.ar    1  UNL1       -0.2121
      6 C         142.0316  140.2371  165.2295 C.ar    1  UNL1        0.1179
      7 C         142.6907  139.8425  163.9411 C.ar    1  UNL1        0.0178
      8 C         142.8421  140.8473  162.8377 C.ar    1  UNL1       -0.0233
      9 C         142.3344  142.2465  163.0226 C.ar    1  UNL1       -0.0256
     10 C         141.6753  142.6411  164.3109 C.ar    1  UNL1        0.0101
     11 C         141.1676  144.0404  164.4958 C.3     1  UNL1        0.0339
     12 C         141.5239  141.6364  165.4144 C.ar    1  UNL1        0.1600
     13 O         140.9220  141.7338  166.7849 O.2     1  UNL1       -0.4387
     14 C         142.3836  143.3944  162.0582 C.3     1  UNL1        0.0431
     15 C         142.9528  143.4264  160.6707 C.3     1  UNL1        0.0768
     16 N         143.6132  142.3186  159.9051 N.3     1  UNL1       -0.2733
     17 C         143.8677  140.9050  160.3376 C.3     1  UNL1        0.0768
     18 C         143.5245  140.2502  161.6427 C.3     1  UNL1        0.0434
     19 C         139.1482  140.2242  169.2005 C.3     1  UNL1        0.0102
     20 C         140.5898  140.0424  168.8280 C.3     1  UNL1        0.0853
     21 C         142.4669  142.2494  156.5324 C.3     1  UNL1        0.0665
     22 S         141.0564  141.7865  156.7471 S.3     1  UNL1       -0.0756
     23 C         140.6167  141.3258  158.1051 C.ar    1  UNL1        0.1932
     24 N         140.7770  139.9421  158.6615 N.ar    1  UNL1       -0.1221
     25 N         140.1987  139.9291  160.0456 N.ar    1  UNL1       -0.1282
     26 C         139.6810  141.3049  160.3445 C.ar    1  UNL1        0.1669
     27 N         139.9393  142.1680  159.1453 N.ar    1  UNL1       -0.2884
     28 C         139.5828  143.6188  159.0099 C.3     1  UNL1        0.1340
     29 C         139.0209  141.7408  161.6189 C.ar    1  UNL1        0.0374
     30 C         138.5236  143.1487  161.7625 C.ar    1  UNL1        0.0031
     31 C         137.8635  143.5846  163.0369 C.ar    1  UNL1        0.0016
     32 C         137.7007  142.6127  164.1679 C.ar    1  UNL1        0.0191
     33 C         138.1980  141.2048  164.0243 C.ar    1  UNL1        0.0810
     34 N         138.0352  140.2329  165.1552 N.ar    1  UNL1       -0.2497
     35 C         138.5325  138.8250  165.0116 C.ar    1  UNL1        0.0593
     36 C         138.3697  137.8531  166.1424 C.3     1  UNL1        0.0521
     37 C         139.1926  138.3891  163.7372 C.ar    1  UNL1        0.0147
     38 C         139.3554  139.3610  162.6063 C.ar    1  UNL1        0.0028
     39 C         138.8581  140.7688  162.7499 C.ar    1  UNL1        0.0206
@<TRIPOS>BOND
     1    19    20    1
     2    20     4    1
     3     4     5   ar
     4     5     6   ar
     5     6     7   ar
     6     7     8   ar
     7     8     9   ar
     8     9    10   ar
     9    10    11    1
    10    10    12   ar
    11    12    13   ar
    12     9    14    1
    13    14    15    1
    14    15    16    1
    15    16     2    1
    16     2     3    1
    17     2     1    1
    18     1    21    1
    19    21    22    1
    20    22    23    1
    21    23    24   ar
    22    24    25   ar
    23    25    26   ar
    24    26    29    1
    25    29    30   ar
    26    30    31   ar
    27    31    32   ar
    28    32    33   ar
    29    33    34   ar
    30    34    35   ar
    31    35    36    1
    32    35    37   ar
    33    37    38   ar
    34    38    39   ar
    35    26    27   ar
    36    27    28    1
    37    16    17    1
    38    17    18    1
    39    13     4   ar
    40    27    23   ar
    41    12     6   ar
    42    39    29   ar
    43    18     8    1
    44    39    33   ar
