@<TRIPOS>MOLECULE
*****
 33 36 0 0 0
SMALL
GASTEIGER

@<TRIPOS>ATOM
      1 N         143.0432  142.1097  165.2520 N.3     1  UNL1       -0.2647
      2 C         144.2271  141.2725  164.8682 C.3     1  UNL1        0.1037
      3 C         144.4161  140.8501  163.4414 C.3     1  UNL1        0.1470
      4 C         144.6051  140.4277  162.0146 C.3     1  UNL1        0.1035
      5 N         143.6102  140.8426  160.9715 N.3     1  UNL1       -0.2673
      6 C         142.4262  141.6798  161.3553 C.3     1  UNL1        0.1035
      7 C         142.2372  142.1022  162.7821 C.3     1  UNL1        0.1470
      8 C         142.0483  142.5246  164.2090 C.3     1  UNL1        0.1037
      9 O         143.4212  141.2650  162.3984 O.3     1  UNL1       -0.3530
     10 C         142.8542  142.5321  166.6789 C.3     1  UNL1        0.0993
     11 C         139.5738  140.6969  169.1530 C.ar    1  UNL1        0.0684
     12 C         140.0684  142.0774  169.4687 C.ar    1  UNL1        0.0100
     13 C         141.1619  142.6892  168.6440 C.ar    1  UNL1       -0.0022
     14 C         141.7607  141.9204  167.5036 C.ar    1  UNL1       -0.0061
     15 C         141.2661  140.5399  167.1879 C.ar    1  UNL1       -0.0022
     16 C         140.1726  139.9282  168.0126 C.ar    1  UNL1        0.0100
     17 N         137.3869  139.4735  170.8024 N.1     1  UNL1       -0.1908
     18 C         138.4804  140.0852  169.9777 C.1     1  UNL1        0.1004
     19 C         143.7992  140.4202  159.5447 C.3     1  UNL1        0.0913
     20 C         142.9244  139.3531  158.9562 C.3     1  UNL1        0.1087
     21 N         142.7288  138.0570  159.6854 N.3     1  UNL1       -0.1780
     22 H         143.6538  137.7400  159.9758 H       1  UNL1        0.1488
     23 S         141.8519  138.0055  160.9013 S.O2    1  UNL1        0.0603
     24 O         143.0223  137.5591  161.7264 O.2     1  UNL1       -0.1530
     25 O         140.6815  138.4518  160.0761 O.2     1  UNL1       -0.1530
     26 C         140.9750  137.9539  162.1172 C.ar    1  UNL1        0.1220
     27 C         141.5897  137.8480  163.4813 C.ar    1  UNL1        0.0206
     28 C         140.7129  137.7965  164.6972 C.ar    1  UNL1        0.0116
     29 C         139.2212  137.8509  164.5489 C.ar    1  UNL1        0.0685
     30 C         138.6065  137.9568  163.1848 C.ar    1  UNL1        0.0116
     31 C         139.4833  138.0083  161.9689 C.ar    1  UNL1        0.0206
     32 C         138.3443  137.7993  165.7648 C.1     1  UNL1        0.1004
     33 N         137.4673  137.7477  166.9807 N.1     1  UNL1       -0.1908
@<TRIPOS>BOND
     1    17    18    3
     2    18    11    1
     3    11    12   ar
     4    12    13   ar
     5    13    14   ar
     6    14    10    1
     7    10     1    1
     8     1     2    1
     9     2     3    1
    10     3     4    1
    11     4     5    1
    12     5    19    1
    13    19    20    1
    14    20    21    1
    15    21    23    1
    16    23    24    2
    17    23    25    2
    18    23    26    1
    19    26    27   ar
    20    27    28   ar
    21    28    29   ar
    22    29    32    1
    23    32    33    3
    24    29    30   ar
    25    30    31   ar
    26     5     6    1
    27     6     7    1
    28     7     8    1
    29     7     9    1
    30    14    15   ar
    31    15    16   ar
    32    16    11   ar
    33     8     1    1
    34     9     3    1
    35    31    26   ar
    36    21    22    1
@<TRIPOS>MOLECULE
*****
 33 36 0 0 0
SMALL
GASTEIGER

@<TRIPOS>ATOM
      1 N         143.0792  141.4827  164.1710 N.3     1  UNL1       -0.2647
      2 C         143.1869  140.0512  163.7364 C.3     1  UNL1        0.1037
      3 C         142.6023  139.6198  162.4241 C.3     1  UNL1        0.1470
      4 C         142.0178  139.1884  161.1117 C.3     1  UNL1        0.1035
      5 N         141.3255  140.1886  160.2340 N.3     1  UNL1       -0.2673
      6 C         141.2178  141.6202  160.6687 C.3     1  UNL1        0.1035
      7 C         141.8024  142.0516  161.9810 C.3     1  UNL1        0.1470
      8 C         142.3869  142.4830  163.2933 C.3     1  UNL1        0.1037
      9 O         141.9101  140.6200  161.5464 O.3     1  UNL1       -0.3530
     10 C         143.6637  141.9142  165.4834 C.3     1  UNL1        0.0993
     11 C         140.9624  142.7451  168.9852 C.ar    1  UNL1        0.0684
     12 C         142.4418  142.6123  169.1941 C.ar    1  UNL1        0.0100
     13 C         143.3423  142.3353  168.0269 C.ar    1  UNL1       -0.0022
     14 C         142.7633  142.1911  166.6506 C.ar    1  UNL1       -0.0061
     15 C         141.2838  142.3240  166.4417 C.ar    1  UNL1       -0.0022
     16 C         140.3834  142.6010  167.6089 C.ar    1  UNL1        0.0100
     17 N         139.1616  143.2991  171.3197 N.1     1  UNL1       -0.1908
     18 C         140.0620  143.0221  170.1524 C.1     1  UNL1        0.1004
     19 C         140.7410  139.7572  158.9217 C.3     1  UNL1        0.0913
     20 C         139.4857  138.9365  158.8933 C.3     1  UNL1        0.1087
     21 N         138.2909  139.3654  159.6923 N.3     1  UNL1       -0.1780
     22 H         137.5262  138.7405  159.4371 H       1  UNL1        0.1488
     23 S         138.3567  139.3798  161.1908 S.O2    1  UNL1        0.0603
     24 O         137.9058  140.8104  161.1969 O.2     1  UNL1       -0.1530
     25 O         138.8076  137.9492  161.1847 O.2     1  UNL1       -0.1530
     26 C         138.4224  139.3941  162.6893 C.ar    1  UNL1        0.1220
     27 C         138.7757  138.1424  163.4365 C.ar    1  UNL1        0.0206
     28 C         138.8415  138.1567  164.9350 C.ar    1  UNL1        0.0116
     29 C         138.5539  139.4227  165.6862 C.ar    1  UNL1        0.0685
     30 C         138.2006  140.6744  164.9391 C.ar    1  UNL1        0.0116
     31 C         138.1348  140.6602  163.4406 C.ar    1  UNL1        0.0206
     32 C         138.6197  139.4370  167.1848 C.1     1  UNL1        0.1004
     33 N         138.6854  139.4513  168.6833 N.1     1  UNL1       -0.1908
@<TRIPOS>BOND
     1    17    18    3
     2    18    11    1
     3    11    12   ar
     4    12    13   ar
     5    13    14   ar
     6    14    10    1
     7    10     1    1
     8     1     2    1
     9     2     3    1
    10     3     4    1
    11     4     5    1
    12     5    19    1
    13    19    20    1
    14    20    21    1
    15    21    23    1
    16    23    24    2
    17    23    25    2
    18    23    26    1
    19    26    27   ar
    20    27    28   ar
    21    28    29   ar
    22    29    32    1
    23    32    33    3
    24    29    30   ar
    25    30    31   ar
    26     5     6    1
    27     6     7    1
    28     7     8    1
    29     7     9    1
    30    14    15   ar
    31    15    16   ar
    32    16    11   ar
    33     8     1    1
    34     9     3    1
    35    31    26   ar
    36    21    22    1
@<TRIPOS>MOLECULE
*****
 33 36 0 0 0
SMALL
GASTEIGER

@<TRIPOS>ATOM
      1 N         143.1946  142.9134  164.5340 N.3     1  UNL1       -0.2647
      2 C         142.3988  144.1547  164.2586 C.3     1  UNL1        0.1037
      3 C         141.8280  144.3917  162.8919 C.3     1  UNL1        0.1470
      4 C         141.2571  144.6288  161.5251 C.3     1  UNL1        0.1035
      5 N         141.4820  143.6246  160.4338 N.3     1  UNL1       -0.2673
      6 C         142.2778  142.3832  160.7093 C.3     1  UNL1        0.1035
      7 C         142.8487  142.1462  162.0760 C.3     1  UNL1        0.1470
      8 C         143.4195  141.9091  163.4427 C.3     1  UNL1        0.1037
      9 O         142.0529  143.3875  161.8006 O.3     1  UNL1       -0.3530
     10 C         143.7655  142.6762  165.9007 C.3     1  UNL1        0.0993
     11 C         141.2402  140.7551  169.0917 C.ar    1  UNL1        0.0684
     12 C         142.3919  141.6360  169.4758 C.ar    1  UNL1        0.0100
     13 C         143.2337  142.2764  168.4121 C.ar    1  UNL1       -0.0022
     14 C         142.9238  142.0359  166.9644 C.ar    1  UNL1       -0.0061
     15 C         141.7720  141.1548  166.5802 C.ar    1  UNL1       -0.0022
     16 C         140.9303  140.5145  167.6439 C.ar    1  UNL1        0.0100
     17 N         139.5567  139.4743  171.2190 N.1     1  UNL1       -0.1908
     18 C         140.3985  140.1147  170.1553 C.1     1  UNL1        0.1004
     19 C         140.9112  143.8616  159.0672 C.3     1  UNL1        0.0913
     20 C         139.7669  143.0248  158.5768 C.3     1  UNL1        0.1087
     21 N         138.4766  142.9967  159.3412 N.3     1  UNL1       -0.1780
     22 H         137.7779  142.5824  158.7244 H       1  UNL1        0.1488
     23 S         138.3937  142.2607  160.6456 S.O2    1  UNL1        0.0603
     24 O         137.9713  143.5255  161.3324 O.2     1  UNL1       -0.1530
     25 O         138.8160  140.9959  159.9588 O.2     1  UNL1       -0.1530
     26 C         138.3107  141.5246  161.9500 C.ar    1  UNL1        0.1220
     27 C         138.3891  140.0268  161.9722 C.ar    1  UNL1        0.0206
     28 C         138.3062  139.2907  163.2765 C.ar    1  UNL1        0.0116
     29 C         138.1447  140.0524  164.5586 C.ar    1  UNL1        0.0685
     30 C         138.0663  141.5502  164.5363 C.ar    1  UNL1        0.0116
     31 C         138.1492  142.2863  163.2320 C.ar    1  UNL1        0.0206
     32 C         138.0618  139.3164  165.8630 C.1     1  UNL1        0.1004
     33 N         137.9788  138.5803  167.1673 N.1     1  UNL1       -0.1908
@<TRIPOS>BOND
     1    17    18    3
     2    18    11    1
     3    11    12   ar
     4    12    13   ar
     5    13    14   ar
     6    14    10    1
     7    10     1    1
     8     1     2    1
     9     2     3    1
    10     3     4    1
    11     4     5    1
    12     5    19    1
    13    19    20    1
    14    20    21    1
    15    21    23    1
    16    23    24    2
    17    23    25    2
    18    23    26    1
    19    26    27   ar
    20    27    28   ar
    21    28    29   ar
    22    29    32    1
    23    32    33    3
    24    29    30   ar
    25    30    31   ar
    26     5     6    1
    27     6     7    1
    28     7     8    1
    29     7     9    1
    30    14    15   ar
    31    15    16   ar
    32    16    11   ar
    33     8     1    1
    34     9     3    1
    35    31    26   ar
    36    21    22    1
@<TRIPOS>MOLECULE
*****
 33 36 0 0 0
SMALL
GASTEIGER

@<TRIPOS>ATOM
      1 N         142.2269  138.7608  164.9298 N.3     1  UNL1       -0.2647
      2 C         140.9647  137.9950  164.6648 C.3     1  UNL1        0.1037
      3 C         140.4416  137.8728  163.2643 C.3     1  UNL1        0.1470
      4 C         139.9185  137.7505  161.8637 C.3     1  UNL1        0.1035
      5 N         140.6577  138.3941  160.7282 N.3     1  UNL1       -0.2673
      6 C         141.9200  139.1600  160.9933 C.3     1  UNL1        0.1035
      7 C         142.4430  139.2822  162.3937 C.3     1  UNL1        0.1470
      8 C         142.9661  139.4044  163.7942 C.3     1  UNL1        0.1037
      9 O         141.1808  138.5164  162.1288 O.3     1  UNL1       -0.3530
     10 C         142.7501  138.8831  166.3303 C.3     1  UNL1        0.0993
     11 C         140.6500  141.5409  169.2926 C.ar    1  UNL1        0.0684
     12 C         140.4883  141.7834  167.8212 C.ar    1  UNL1        0.0100
     13 C         141.1883  140.8974  166.8337 C.ar    1  UNL1       -0.0022
     14 C         142.0500  139.7690  167.3177 C.ar    1  UNL1       -0.0061
     15 C         142.2117  139.5266  168.7892 C.ar    1  UNL1       -0.0022
     16 C         141.5117  140.4126  169.7766 C.ar    1  UNL1        0.0100
     17 N         139.2499  143.3128  171.2675 N.1     1  UNL1       -0.1908
     18 C         139.9500  142.4269  170.2800 C.1     1  UNL1        0.1004
     19 C         140.1346  138.2719  159.3277 C.3     1  UNL1        0.0913
     20 C         139.4461  139.4366  158.6799 C.3     1  UNL1        0.1087
     21 N         138.1484  139.9442  159.2351 N.3     1  UNL1       -0.1780
     22 H         137.6025  139.1254  159.5032 H       1  UNL1        0.1488
     23 S         138.1486  140.8700  160.4152 S.O2    1  UNL1        0.0603
     24 O         138.9489  141.8681  159.6321 O.2     1  UNL1       -0.1530
     25 O         137.3483  139.8719  161.1983 O.2     1  UNL1       -0.1530
     26 C         138.1487  141.7958  161.5955 C.ar    1  UNL1        0.1220
     27 C         138.6594  143.1985  161.4483 C.ar    1  UNL1        0.0206
     28 C         138.6596  144.1243  162.6284 C.ar    1  UNL1        0.0116
     29 C         138.1490  143.6475  163.9558 C.ar    1  UNL1        0.0685
     30 C         137.6383  142.2448  164.1029 C.ar    1  UNL1        0.0116
     31 C         137.6382  141.3190  162.9228 C.ar    1  UNL1        0.0206
     32 C         138.1492  144.5733  165.1360 C.1     1  UNL1        0.1004
     33 N         138.1493  145.4991  166.3162 N.1     1  UNL1       -0.1908
@<TRIPOS>BOND
     1    17    18    3
     2    18    11    1
     3    11    12   ar
     4    12    13   ar
     5    13    14   ar
     6    14    10    1
     7    10     1    1
     8     1     2    1
     9     2     3    1
    10     3     4    1
    11     4     5    1
    12     5    19    1
    13    19    20    1
    14    20    21    1
    15    21    23    1
    16    23    24    2
    17    23    25    2
    18    23    26    1
    19    26    27   ar
    20    27    28   ar
    21    28    29   ar
    22    29    32    1
    23    32    33    3
    24    29    30   ar
    25    30    31   ar
    26     5     6    1
    27     6     7    1
    28     7     8    1
    29     7     9    1
    30    14    15   ar
    31    15    16   ar
    32    16    11   ar
    33     8     1    1
    34     9     3    1
    35    31    26   ar
    36    21    22    1
@<TRIPOS>MOLECULE
*****
 33 36 0 0 0
SMALL
GASTEIGER

@<TRIPOS>ATOM
      1 N         139.0327  139.3300  164.4446 N.3     1  UNL1       -0.2647
      2 C         138.3611  139.9727  163.2674 C.3     1  UNL1        0.1037
      3 C         138.8749  139.7203  161.8810 C.3     1  UNL1        0.1470
      4 C         139.3886  139.4678  160.4944 C.3     1  UNL1        0.1035
      5 N         140.5739  138.5727  160.2852 N.3     1  UNL1       -0.2673
      6 C         141.2454  137.9299  161.4625 C.3     1  UNL1        0.1035
      7 C         140.7317  138.1824  162.8489 C.3     1  UNL1        0.1470
      8 C         140.2179  138.4348  164.2354 C.3     1  UNL1        0.1037
      9 O         140.0601  138.8251  161.6717 O.3     1  UNL1       -0.3530
     10 C         138.5189  139.5824  165.8312 C.3     1  UNL1        0.0993
     11 C         140.9494  142.0314  168.7200 C.ar    1  UNL1        0.0684
     12 C         140.2663  140.7803  169.1871 C.ar    1  UNL1        0.0100
     13 C         139.4561  139.9640  168.2241 C.ar    1  UNL1       -0.0022
     14 C         139.3291  140.3987  166.7941 C.ar    1  UNL1       -0.0061
     15 C         140.0122  141.6498  166.3271 C.ar    1  UNL1       -0.0022
     16 C         140.8224  142.4661  167.2900 C.ar    1  UNL1        0.0100
     17 N         142.5697  143.6640  170.6460 N.1     1  UNL1       -0.1908
     18 C         141.7595  142.8476  169.6830 C.1     1  UNL1        0.1004
     19 C         141.0876  138.3202  158.8987 C.3     1  UNL1        0.0913
     20 C         142.5533  138.0964  158.6711 C.3     1  UNL1        0.1087
     21 N         143.4909  139.2659  158.6161 N.3     1  UNL1       -0.1780
     22 H         143.1132  139.9139  157.9248 H       1  UNL1        0.1488
     23 S         143.7655  140.0659  159.8549 S.O2    1  UNL1        0.0603
     24 O         144.4221  138.8714  160.4808 O.2     1  UNL1       -0.1530
     25 O         143.1089  141.2605  159.2289 O.2     1  UNL1       -0.1530
     26 C         144.0401  140.8660  161.0937 C.ar    1  UNL1        0.1220
     27 C         144.2352  142.3503  160.9999 C.ar    1  UNL1        0.0206
     28 C         144.5097  143.1504  162.2386 C.ar    1  UNL1        0.0116
     29 C         144.5892  142.4662  163.5711 C.ar    1  UNL1        0.0685
     30 C         144.3940  140.9819  163.6648 C.ar    1  UNL1        0.0116
     31 C         144.1195  140.1818  162.4261 C.ar    1  UNL1        0.0206
     32 C         144.8637  143.2663  164.8099 C.1     1  UNL1        0.1004
     33 N         145.1383  144.0663  166.0486 N.1     1  UNL1       -0.1908
@<TRIPOS>BOND
     1    17    18    3
     2    18    11    1
     3    11    12   ar
     4    12    13   ar
     5    13    14   ar
     6    14    10    1
     7    10     1    1
     8     1     2    1
     9     2     3    1
    10     3     4    1
    11     4     5    1
    12     5    19    1
    13    19    20    1
    14    20    21    1
    15    21    23    1
    16    23    24    2
    17    23    25    2
    18    23    26    1
    19    26    27   ar
    20    27    28   ar
    21    28    29   ar
    22    29    32    1
    23    32    33    3
    24    29    30   ar
    25    30    31   ar
    26     5     6    1
    27     6     7    1
    28     7     8    1
    29     7     9    1
    30    14    15   ar
    31    15    16   ar
    32    16    11   ar
    33     8     1    1
    34     9     3    1
    35    31    26   ar
    36    21    22    1
@<TRIPOS>MOLECULE
*****
 33 36 0 0 0
SMALL
GASTEIGER

@<TRIPOS>ATOM
      1 N         138.9427  139.5086  162.8921 N.3     1  UNL1       -0.2647
      2 C         140.1446  139.3362  162.0114 C.3     1  UNL1        0.1037
      3 C         140.3877  140.2896  160.8793 C.3     1  UNL1        0.1470
      4 C         140.6309  141.2430  159.7470 C.3     1  UNL1        0.1035
      5 N         139.6721  142.3687  159.4954 N.3     1  UNL1       -0.2673
      6 C         138.4701  142.5411  160.3761 C.3     1  UNL1        0.1035
      7 C         138.2270  141.5878  161.5083 C.3     1  UNL1        0.1470
      8 C         137.9839  140.6344  162.6405 C.3     1  UNL1        0.1037
      9 O         139.4289  141.4153  160.6277 O.3     1  UNL1       -0.3530
     10 C         138.6995  138.5552  164.0244 C.3     1  UNL1        0.0993
     11 C         139.4431  139.8623  168.2656 C.ar    1  UNL1        0.0684
     12 C         140.4948  140.0798  167.2185 C.ar    1  UNL1        0.0100
     13 C         140.2470  139.6440  165.8047 C.ar    1  UNL1       -0.0022
     14 C         138.9474  138.9909  165.4381 C.ar    1  UNL1       -0.0061
     15 C         137.8956  138.7735  166.4853 C.ar    1  UNL1       -0.0022
     16 C         138.1435  139.2092  167.8990 C.ar    1  UNL1        0.0100
     17 N         139.9389  140.7337  171.0932 N.1     1  UNL1       -0.1908
     18 C         139.6910  140.2980  169.6793 C.1     1  UNL1        0.1004
     19 C         139.9153  143.3221  158.3632 C.3     1  UNL1        0.0913
     20 C         140.2155  144.7639  158.6481 C.3     1  UNL1        0.1087
     21 N         141.5035  145.1439  159.3164 N.3     1  UNL1       -0.1780
     22 H         141.5285  146.1631  159.3497 H       1  UNL1        0.1488
     23 S         141.8004  144.6579  160.7040 S.O2    1  UNL1        0.0603
     24 O         140.6177  145.4200  161.2240 O.2     1  UNL1       -0.1530
     25 O         142.9831  143.8958  160.1841 O.2     1  UNL1       -0.1530
     26 C         142.0973  144.1718  162.0917 C.ar    1  UNL1        0.1220
     27 C         141.0163  143.5273  162.9079 C.ar    1  UNL1        0.0206
     28 C         141.3131  143.0412  164.2955 C.ar    1  UNL1        0.0116
     29 C         142.6909  143.1996  164.8670 C.ar    1  UNL1        0.0685
     30 C         143.7719  143.8440  164.0508 C.ar    1  UNL1        0.0116
     31 C         143.4750  144.3301  162.6631 C.ar    1  UNL1        0.0206
     32 C         142.9878  142.7135  166.2547 C.1     1  UNL1        0.1004
     33 N         143.2846  142.2274  167.6423 N.1     1  UNL1       -0.1908
@<TRIPOS>BOND
     1    17    18    3
     2    18    11    1
     3    11    12   ar
     4    12    13   ar
     5    13    14   ar
     6    14    10    1
     7    10     1    1
     8     1     2    1
     9     2     3    1
    10     3     4    1
    11     4     5    1
    12     5    19    1
    13    19    20    1
    14    20    21    1
    15    21    23    1
    16    23    24    2
    17    23    25    2
    18    23    26    1
    19    26    27   ar
    20    27    28   ar
    21    28    29   ar
    22    29    32    1
    23    32    33    3
    24    29    30   ar
    25    30    31   ar
    26     5     6    1
    27     6     7    1
    28     7     8    1
    29     7     9    1
    30    14    15   ar
    31    15    16   ar
    32    16    11   ar
    33     8     1    1
    34     9     3    1
    35    31    26   ar
    36    21    22    1
@<TRIPOS>MOLECULE
*****
 33 36 0 0 0
SMALL
GASTEIGER

@<TRIPOS>ATOM
      1 N         138.5467  139.3294  165.5453 N.3     1  UNL1       -0.2647
      2 C         138.9405  138.2337  164.5996 C.3     1  UNL1        0.1037
      3 C         138.7706  138.4219  163.1212 C.3     1  UNL1        0.1470
      4 C         138.6007  138.6101  161.6428 C.3     1  UNL1        0.1035
      5 N         138.0369  139.8940  161.1100 N.3     1  UNL1       -0.2673
      6 C         137.6430  140.9897  162.0558 C.3     1  UNL1        0.1035
      7 C         137.8129  140.8015  163.5342 C.3     1  UNL1        0.1470
      8 C         137.9829  140.6133  165.0125 C.3     1  UNL1        0.1037
      9 O         138.2068  139.7058  162.5885 O.3     1  UNL1       -0.3530
     10 C         138.7166  139.1412  167.0237 C.3     1  UNL1        0.0993
     11 C         141.3778  141.9223  169.3547 C.ar    1  UNL1        0.0684
     12 C         140.1688  141.3195  170.0064 C.ar    1  UNL1        0.0100
     13 C         139.2816  140.3924  169.2294 C.ar    1  UNL1       -0.0022
     14 C         139.6036  140.0682  167.8007 C.ar    1  UNL1       -0.0061
     15 C         140.8128  140.6710  167.1490 C.ar    1  UNL1       -0.0022
     16 C         141.6998  141.5981  167.9260 C.ar    1  UNL1        0.0100
     17 N         143.1520  143.7764  170.9086 N.1     1  UNL1       -0.1908
     18 C         142.2649  142.8493  170.1317 C.1     1  UNL1        0.1004
     19 C         137.8670  140.0822  159.6317 C.3     1  UNL1        0.0913
     20 C         139.0474  140.4485  158.7816 C.3     1  UNL1        0.1087
     21 N         139.6518  141.8173  158.8874 N.3     1  UNL1       -0.1780
     22 H         138.8782  142.4820  158.8809 H       1  UNL1        0.1488
     23 S         140.5139  142.1675  160.0638 S.O2    1  UNL1        0.0603
     24 O         139.6998  143.4065  160.2916 O.2     1  UNL1       -0.1530
     25 O         141.3281  140.9285  159.8360 O.2     1  UNL1       -0.1530
     26 C         141.3762  142.5177  161.2402 C.ar    1  UNL1        0.1220
     27 C         142.3077  143.6910  161.1645 C.ar    1  UNL1        0.0206
     28 C         143.1699  144.0412  162.3408 C.ar    1  UNL1        0.0116
     29 C         143.1006  143.2182  163.5930 C.ar    1  UNL1        0.0685
     30 C         142.1690  142.0450  163.6687 C.ar    1  UNL1        0.0116
     31 C         141.3068  141.6948  162.4924 C.ar    1  UNL1        0.0206
     32 C         143.9628  143.5685  164.7694 C.1     1  UNL1        0.1004
     33 N         144.8249  143.9187  165.9459 N.1     1  UNL1       -0.1908
@<TRIPOS>BOND
     1    17    18    3
     2    18    11    1
     3    11    12   ar
     4    12    13   ar
     5    13    14   ar
     6    14    10    1
     7    10     1    1
     8     1     2    1
     9     2     3    1
    10     3     4    1
    11     4     5    1
    12     5    19    1
    13    19    20    1
    14    20    21    1
    15    21    23    1
    16    23    24    2
    17    23    25    2
    18    23    26    1
    19    26    27   ar
    20    27    28   ar
    21    28    29   ar
    22    29    32    1
    23    32    33    3
    24    29    30   ar
    25    30    31   ar
    26     5     6    1
    27     6     7    1
    28     7     8    1
    29     7     9    1
    30    14    15   ar
    31    15    16   ar
    32    16    11   ar
    33     8     1    1
    34     9     3    1
    35    31    26   ar
    36    21    22    1
@<TRIPOS>MOLECULE
*****
 33 36 0 0 0
SMALL
GASTEIGER

@<TRIPOS>ATOM
      1 N         140.1563  138.4393  162.5047 N.3     1  UNL1       -0.2647
      2 C         141.5520  137.9636  162.2293 C.3     1  UNL1        0.1037
      3 C         142.3572  138.5960  161.1332 C.3     1  UNL1        0.1470
      4 C         143.1625  139.2284  160.0370 C.3     1  UNL1        0.1035
      5 N         142.5721  140.3364  159.2162 N.3     1  UNL1       -0.2673
      6 C         141.1764  140.8121  159.4916 C.3     1  UNL1        0.1035
      7 C         140.3712  140.1797  160.5878 C.3     1  UNL1        0.1470
      8 C         139.5659  139.5473  161.6839 C.3     1  UNL1        0.1037
      9 O         141.7668  139.7040  160.3124 O.3     1  UNL1       -0.3530
     10 C         139.3510  137.8069  163.6009 C.3     1  UNL1        0.0993
     11 C         139.2477  139.6865  167.6882 C.ar    1  UNL1        0.0684
     12 C         138.1314  138.7864  167.2483 C.ar    1  UNL1        0.0100
     13 C         138.1658  138.1598  165.8858 C.ar    1  UNL1       -0.0022
     14 C         139.3165  138.4334  164.9633 C.ar    1  UNL1       -0.0061
     15 C         140.4329  139.3335  165.4034 C.ar    1  UNL1       -0.0022
     16 C         140.3984  139.9600  166.7658 C.ar    1  UNL1        0.0100
     17 N         139.1787  140.9396  170.4131 N.1     1  UNL1       -0.1908
     18 C         139.2132  140.3130  169.0507 C.1     1  UNL1        0.1004
     19 C         143.3774  140.9688  158.1200 C.3     1  UNL1        0.0913
     20 C         144.2793  142.1280  158.4250 C.3     1  UNL1        0.1087
     21 N         143.7744  143.2744  159.2500 N.3     1  UNL1       -0.1780
     22 H         142.8249  143.4699  158.9325 H       1  UNL1        0.1488
     23 S         143.7154  143.1546  160.7440 S.O2    1  UNL1        0.0603
     24 O         144.9778  142.3447  160.7288 O.2     1  UNL1       -0.1530
     25 O         142.4530  143.9645  160.7591 O.2     1  UNL1       -0.1530
     26 C         143.6564  143.0349  162.2381 C.ar    1  UNL1        0.1220
     27 C         144.1043  144.1776  163.1003 C.ar    1  UNL1        0.0206
     28 C         144.0453  144.0579  164.5944 C.ar    1  UNL1        0.0116
     29 C         143.5385  142.7954  165.2261 C.ar    1  UNL1        0.0685
     30 C         143.0906  141.6526  164.3638 C.ar    1  UNL1        0.0116
     31 C         143.1496  141.7724  162.8698 C.ar    1  UNL1        0.0206
     32 C         143.4795  142.6756  166.7202 C.1     1  UNL1        0.1004
     33 N         143.4205  142.5559  168.2142 N.1     1  UNL1       -0.1908
@<TRIPOS>BOND
     1    17    18    3
     2    18    11    1
     3    11    12   ar
     4    12    13   ar
     5    13    14   ar
     6    14    10    1
     7    10     1    1
     8     1     2    1
     9     2     3    1
    10     3     4    1
    11     4     5    1
    12     5    19    1
    13    19    20    1
    14    20    21    1
    15    21    23    1
    16    23    24    2
    17    23    25    2
    18    23    26    1
    19    26    27   ar
    20    27    28   ar
    21    28    29   ar
    22    29    32    1
    23    32    33    3
    24    29    30   ar
    25    30    31   ar
    26     5     6    1
    27     6     7    1
    28     7     8    1
    29     7     9    1
    30    14    15   ar
    31    15    16   ar
    32    16    11   ar
    33     8     1    1
    34     9     3    1
    35    31    26   ar
    36    21    22    1
@<TRIPOS>MOLECULE
*****
 33 36 0 0 0
SMALL
GASTEIGER

@<TRIPOS>ATOM
      1 N         140.1885  138.4835  162.5128 N.3     1  UNL1       -0.2647
      2 C         141.6416  138.3688  162.1589 C.3     1  UNL1        0.1037
      3 C         142.1869  139.1152  160.9776 C.3     1  UNL1        0.1470
      4 C         142.7323  139.8617  159.7963 C.3     1  UNL1        0.1035
      5 N         141.8245  140.7228  158.9690 N.3     1  UNL1       -0.2673
      6 C         140.3714  140.8374  159.3230 C.3     1  UNL1        0.1035
      7 C         139.8260  140.0910  160.5042 C.3     1  UNL1        0.1470
      8 C         139.2807  139.3446  161.6855 C.3     1  UNL1        0.1037
      9 O         141.2791  139.9763  160.1503 O.3     1  UNL1       -0.3530
     10 C         139.6431  137.7370  163.6941 C.3     1  UNL1        0.0993
     11 C         139.3848  139.7557  167.7076 C.ar    1  UNL1        0.0684
     12 C         138.2084  138.9929  167.1747 C.ar    1  UNL1        0.0100
     13 C         138.2945  138.3199  165.8368 C.ar    1  UNL1       -0.0022
     14 C         139.5570  138.4099  165.0319 C.ar    1  UNL1       -0.0061
     15 C         140.7335  139.1727  165.5649 C.ar    1  UNL1       -0.0022
     16 C         140.6474  139.8456  166.9027 C.ar    1  UNL1        0.0100
     17 N         139.2127  141.1015  170.3833 N.1     1  UNL1       -0.1908
     18 C         139.2987  140.4286  169.0454 C.1     1  UNL1        0.1004
     19 C         142.3698  141.4693  157.7877 C.3     1  UNL1        0.0913
     20 C         142.3178  142.9681  157.7584 C.3     1  UNL1        0.1087
     21 N         142.9125  143.7614  158.8840 N.3     1  UNL1       -0.1780
     22 H         143.1697  144.6706  158.4998 H       1  UNL1        0.1488
     23 S         142.1078  144.0263  160.1218 S.O2    1  UNL1        0.0603
     24 O         140.9210  144.3787  159.2749 O.2     1  UNL1       -0.1530
     25 O         143.2947  143.6740  160.9688 O.2     1  UNL1       -0.1530
     26 C         141.3032  144.2913  161.3598 C.ar    1  UNL1        0.1220
     27 C         139.8140  144.1126  161.3388 C.ar    1  UNL1        0.0206
     28 C         139.0094  144.3775  162.5767 C.ar    1  UNL1        0.0116
     29 C         139.6939  144.8212  163.8354 C.ar    1  UNL1        0.0685
     30 C         141.1830  144.9999  163.8564 C.ar    1  UNL1        0.0116
     31 C         141.9877  144.7350  162.6185 C.ar    1  UNL1        0.0206
     32 C         138.8892  145.0861  165.0734 C.1     1  UNL1        0.1004
     33 N         138.0846  145.3511  166.3113 N.1     1  UNL1       -0.1908
@<TRIPOS>BOND
     1    17    18    3
     2    18    11    1
     3    11    12   ar
     4    12    13   ar
     5    13    14   ar
     6    14    10    1
     7    10     1    1
     8     1     2    1
     9     2     3    1
    10     3     4    1
    11     4     5    1
    12     5    19    1
    13    19    20    1
    14    20    21    1
    15    21    23    1
    16    23    24    2
    17    23    25    2
    18    23    26    1
    19    26    27   ar
    20    27    28   ar
    21    28    29   ar
    22    29    32    1
    23    32    33    3
    24    29    30   ar
    25    30    31   ar
    26     5     6    1
    27     6     7    1
    28     7     8    1
    29     7     9    1
    30    14    15   ar
    31    15    16   ar
    32    16    11   ar
    33     8     1    1
    34     9     3    1
    35    31    26   ar
    36    21    22    1
