@<TRIPOS>MOLECULE
*****
 36 40 0 0 0
SMALL
GASTEIGER

@<TRIPOS>ATOM
      1 C         137.8772  140.1049  161.9208 C.3     1  UNL1        0.0901
      2 C         137.6770  140.4037  163.3770 C.3     1  UNL1        0.0359
      3 C         137.6710  141.8248  163.8572 C.3     1  UNL1        0.0737
      4 N         137.8651  142.9471  162.8810 N.3     1  UNL1       -0.2687
      5 C         138.0652  142.6482  161.4247 C.3     1  UNL1        0.1092
      6 C         138.0713  141.2272  160.9447 C.3     1  UNL1        0.1911
      7 F         138.2714  140.9284  159.4884 F       1  UNL1       -0.2343
      8 N         137.8832  138.6839  161.4408 N.3     1  UNL1       -0.2913
      9 H         137.4266  138.1271  162.1632 H       1  UNL1        0.1236
     10 C         139.1828  138.0038  161.1266 C.3     1  UNL1        0.1152
     11 O         145.8976  141.6200  162.7347 O.2     1  UNL1       -0.2707
     12 C         144.8456  140.6132  163.0949 C.2     1  UNL1        0.2718
     13 C         144.9798  139.8052  164.3515 C.3     1  UNL1        0.2898
     14 O         143.9278  138.7984  164.7117 O.3     1  UNL1       -0.4628
     15 C         142.7416  138.5998  163.8155 C.ar    1  UNL1        0.1708
     16 C         141.6896  137.5930  164.1758 C.ar    1  UNL1        0.0411
     17 C         140.5034  137.3944  163.2795 C.ar    1  UNL1        0.0193
     18 C         140.3691  138.2025  162.0229 C.ar    1  UNL1        0.0765
     19 N         141.4211  139.2092  161.6626 N.ar    1  UNL1       -0.2304
     20 C         142.6074  139.4079  162.5590 C.ar    1  UNL1        0.1682
     21 N         143.6593  140.4146  162.1987 N.am    1  UNL1       -0.2639
     22 H         143.5712  140.9450  161.3740 H       1  UNL1        0.1565
     23 C         137.8590  144.3682  163.3611 C.3     1  UNL1        0.0970
     24 C         138.8506  144.8150  164.3940 C.3     1  UNL1        0.1264
     25 N         140.3058  144.4922  164.2259 N.ar    1  UNL1       -0.2926
     26 C         141.0972  145.1446  163.1313 C.ar    1  UNL1        0.2611
     27 O         140.4334  146.1199  162.2049 O.2     1  UNL1       -0.2670
     28 C         142.5523  144.8218  162.9631 C.ar    1  UNL1        0.0623
     29 C         143.2162  143.8465  163.8896 C.ar    1  UNL1        0.0255
     30 C         142.4248  143.1940  164.9841 C.ar    1  UNL1        0.0974
     31 N         143.0885  142.2188  165.9105 N.ar    1  UNL1       -0.2400
     32 C         142.2972  141.5663  167.0051 C.ar    1  UNL1        0.1285
     33 C         140.8420  141.8892  167.1733 C.ar    1  UNL1        0.1607
     34 F         140.0507  141.2367  168.2678 F       1  UNL1       -0.2025
     35 C         140.1782  142.8645  166.2468 C.ar    1  UNL1        0.0500
     36 C         140.9696  143.5169  165.1523 C.ar    1  UNL1        0.0824
@<TRIPOS>BOND
     1    11    12    2
     2    12    13    1
     3    13    14    1
     4    14    15    1
     5    15    16   ar
     6    16    17   ar
     7    17    18   ar
     8    18    10    1
     9    10     8    1
    10     1     8    1
    11     1     2    1
    12     2     3    1
    13     3     4    1
    14     4    23    1
    15    23    24    1
    16    24    25    1
    17    25    26   ar
    18    26    27    2
    19    26    28   ar
    20    28    29   ar
    21    29    30   ar
    22    30    31   ar
    23    31    32   ar
    24    32    33   ar
    25    33    34    1
    26    33    35   ar
    27    35    36   ar
    28     4     5    1
    29     5     6    1
    30     6     7    1
    31    18    19   ar
    32    19    20   ar
    33    20    21    1
    34    21    12   am
    35    20    15   ar
    36     6     1    1
    37    36    25   ar
    38    36    30   ar
    39     8     9    1
    40    21    22    1
@<TRIPOS>MOLECULE
*****
 36 40 0 0 0
SMALL
GASTEIGER

@<TRIPOS>ATOM
      1 C         143.2709  142.0255  165.1850 C.3     1  UNL1        0.0901
      2 C         142.3161  142.2139  166.3264 C.3     1  UNL1        0.0359
      3 C         141.1959  141.2385  166.5361 C.3     1  UNL1        0.0737
      4 N         141.0305  140.0748  165.6042 N.3     1  UNL1       -0.2687
      5 C         141.9853  139.8864  164.4627 C.3     1  UNL1        0.1092
      6 C         143.1055  140.8618  164.2531 C.3     1  UNL1        0.1911
      7 F         144.0602  140.6734  163.1117 F       1  UNL1       -0.2343
      8 N         144.3910  143.0008  164.9754 N.3     1  UNL1       -0.2913
      9 H         144.8697  143.0964  165.8710 H       1  UNL1        0.1236
     10 C         144.0955  144.3898  164.4920 C.3     1  UNL1        0.1152
     11 O         141.7390  143.6917  157.0954 O.2     1  UNL1       -0.2707
     12 C         141.4847  144.1448  158.5025 C.2     1  UNL1        0.2718
     13 C         140.1906  144.8183  158.8513 C.3     1  UNL1        0.2898
     14 O         139.9363  145.2715  160.2584 O.3     1  UNL1       -0.4628
     15 C         140.9761  145.0510  161.3168 C.ar    1  UNL1        0.1708
     16 C         140.7218  145.5042  162.7239 C.ar    1  UNL1        0.0411
     17 C         141.7616  145.2838  163.7823 C.ar    1  UNL1        0.0193
     18 C         143.0557  144.6102  163.4336 C.ar    1  UNL1        0.0765
     19 N         143.3100  144.1571  162.0265 N.ar    1  UNL1       -0.2304
     20 C         142.2702  144.3775  160.9680 C.ar    1  UNL1        0.1682
     21 N         142.5245  143.9244  159.5609 N.am    1  UNL1       -0.2639
     22 H         143.3739  143.4823  159.3320 H       1  UNL1        0.1565
     23 C         139.9104  139.0994  165.8138 C.3     1  UNL1        0.0970
     24 C         138.5329  139.4208  165.3146 C.3     1  UNL1        0.1264
     25 N         138.3332  139.8590  163.8939 N.ar    1  UNL1       -0.2926
     26 C         138.3574  138.8474  162.7866 C.ar    1  UNL1        0.2611
     27 O         138.5813  137.3976  163.1000 O.2     1  UNL1       -0.2670
     28 C         138.1577  139.2854  161.3660 C.ar    1  UNL1        0.0623
     29 C         137.9339  140.7352  161.0527 C.ar    1  UNL1        0.0255
     30 C         137.9097  141.7468  162.1599 C.ar    1  UNL1        0.0974
     31 N         137.6859  143.1965  161.8466 N.ar    1  UNL1       -0.2400
     32 C         137.6617  144.2081  162.9539 C.ar    1  UNL1        0.1285
     33 C         137.8614  143.7700  164.3745 C.ar    1  UNL1        0.1607
     34 F         137.8372  144.7817  165.4818 F       1  UNL1       -0.2025
     35 C         138.0852  142.3203  164.6879 C.ar    1  UNL1        0.0500
     36 C         138.1094  141.3087  163.5806 C.ar    1  UNL1        0.0824
@<TRIPOS>BOND
     1    11    12    2
     2    12    13    1
     3    13    14    1
     4    14    15    1
     5    15    16   ar
     6    16    17   ar
     7    17    18   ar
     8    18    10    1
     9    10     8    1
    10     1     8    1
    11     1     2    1
    12     2     3    1
    13     3     4    1
    14     4    23    1
    15    23    24    1
    16    24    25    1
    17    25    26   ar
    18    26    27    2
    19    26    28   ar
    20    28    29   ar
    21    29    30   ar
    22    30    31   ar
    23    31    32   ar
    24    32    33   ar
    25    33    34    1
    26    33    35   ar
    27    35    36   ar
    28     4     5    1
    29     5     6    1
    30     6     7    1
    31    18    19   ar
    32    19    20   ar
    33    20    21    1
    34    21    12   am
    35    20    15   ar
    36     6     1    1
    37    36    25   ar
    38    36    30   ar
    39     8     9    1
    40    21    22    1
@<TRIPOS>MOLECULE
*****
 36 40 0 0 0
SMALL
GASTEIGER

@<TRIPOS>ATOM
      1 C         142.1278  138.0456  162.9418 C.3     1  UNL1        0.0901
      2 C         143.0300  138.5513  161.8554 C.3     1  UNL1        0.0359
      3 C         144.1757  139.4586  162.1935 C.3     1  UNL1        0.0737
      4 N         144.4191  139.8602  163.6181 N.3     1  UNL1       -0.2687
      5 C         143.5168  139.3544  164.7046 C.3     1  UNL1        0.1092
      6 C         142.3712  138.4472  164.3664 C.3     1  UNL1        0.1911
      7 F         141.4691  137.9415  165.4528 F       1  UNL1       -0.2343
      8 N         140.9822  137.1383  162.6036 N.3     1  UNL1       -0.2913
      9 H         141.2777  136.5759  161.8056 H       1  UNL1        0.1236
     10 C         139.6442  137.7186  162.2527 C.3     1  UNL1        0.1152
     11 O         138.9225  145.4635  161.7570 O.2     1  UNL1       -0.2707
     12 C         138.7312  144.1873  162.5217 C.2     1  UNL1        0.2718
     13 C         138.1080  144.2165  163.8857 C.3     1  UNL1        0.2898
     14 O         137.9167  142.9403  164.6504 O.3     1  UNL1       -0.4628
     15 C         138.3485  141.6349  164.0510 C.ar    1  UNL1        0.1708
     16 C         138.1572  140.3587  164.8156 C.ar    1  UNL1        0.0411
     17 C         138.5891  139.0533  164.2162 C.ar    1  UNL1        0.0193
     18 C         139.2123  139.0240  162.8521 C.ar    1  UNL1        0.0765
     19 N         139.4037  140.3002  162.0874 N.ar    1  UNL1       -0.2304
     20 C         138.9717  141.6057  162.6869 C.ar    1  UNL1        0.1682
     21 N         139.1631  142.8819  161.9223 N.am    1  UNL1       -0.2639
     22 H         139.5721  142.8627  161.0270 H       1  UNL1        0.1565
     23 C         145.5647  140.7674  163.9563 C.3     1  UNL1        0.0970
     24 C         145.7184  142.0787  163.2443 C.3     1  UNL1        0.1264
     25 N         144.5636  143.0334  163.1732 N.ar    1  UNL1       -0.2926
     26 C         144.1292  143.7777  164.4009 C.ar    1  UNL1        0.2611
     27 O         144.8496  143.5673  165.6997 O.2     1  UNL1       -0.2670
     28 C         142.9745  144.7325  164.3299 C.ar    1  UNL1        0.0623
     29 C         142.2541  144.9429  163.0310 C.ar    1  UNL1        0.0255
     30 C         142.6885  144.1986  161.8033 C.ar    1  UNL1        0.0974
     31 N         141.9682  144.4089  160.5046 N.ar    1  UNL1       -0.2400
     32 C         142.4026  143.6646  159.2768 C.ar    1  UNL1        0.1285
     33 C         143.5573  142.7099  159.3479 C.ar    1  UNL1        0.1607
     34 F         143.9917  141.9656  158.1202 F       1  UNL1       -0.2025
     35 C         144.2777  142.4995  160.6467 C.ar    1  UNL1        0.0500
     36 C         143.8433  143.2438  161.8744 C.ar    1  UNL1        0.0824
@<TRIPOS>BOND
     1    11    12    2
     2    12    13    1
     3    13    14    1
     4    14    15    1
     5    15    16   ar
     6    16    17   ar
     7    17    18   ar
     8    18    10    1
     9    10     8    1
    10     1     8    1
    11     1     2    1
    12     2     3    1
    13     3     4    1
    14     4    23    1
    15    23    24    1
    16    24    25    1
    17    25    26   ar
    18    26    27    2
    19    26    28   ar
    20    28    29   ar
    21    29    30   ar
    22    30    31   ar
    23    31    32   ar
    24    32    33   ar
    25    33    34    1
    26    33    35   ar
    27    35    36   ar
    28     4     5    1
    29     5     6    1
    30     6     7    1
    31    18    19   ar
    32    19    20   ar
    33    20    21    1
    34    21    12   am
    35    20    15   ar
    36     6     1    1
    37    36    25   ar
    38    36    30   ar
    39     8     9    1
    40    21    22    1
@<TRIPOS>MOLECULE
*****
 36 40 0 0 0
SMALL
GASTEIGER

@<TRIPOS>ATOM
      1 C         143.8636  140.2225  164.1109 C.3     1  UNL1        0.0901
      2 C         143.1468  140.9500  165.2095 C.3     1  UNL1        0.0359
      3 C         141.8302  140.4378  165.7138 C.3     1  UNL1        0.0737
      4 N         141.2304  139.1980  165.1194 N.3     1  UNL1       -0.2687
      5 C         141.9472  138.4705  164.0207 C.3     1  UNL1        0.1092
      6 C         143.2638  138.9827  163.5165 C.3     1  UNL1        0.1911
      7 F         143.9805  138.2552  162.4179 F       1  UNL1       -0.2343
      8 N         145.1801  140.7347  163.6067 N.3     1  UNL1       -0.2913
      9 H         145.8457  140.6415  164.3739 H       1  UNL1        0.1236
     10 C         145.2939  142.1433  163.1035 C.3     1  UNL1        0.1152
     11 O         139.2421  146.6526  161.1563 O.2     1  UNL1       -0.2707
     12 C         140.2968  145.6573  160.7731 C.2     1  UNL1        0.2718
     13 C         140.3889  145.1696  159.3576 C.3     1  UNL1        0.2898
     14 O         141.4436  144.1742  158.9743 O.3     1  UNL1       -0.4628
     15 C         142.4062  143.6665  160.0066 C.ar    1  UNL1        0.1708
     16 C         143.4608  142.6711  159.6234 C.ar    1  UNL1        0.0411
     17 C         144.4234  142.1634  160.6557 C.ar    1  UNL1        0.0193
     18 C         144.3313  142.6510  162.0713 C.ar    1  UNL1        0.0765
     19 N         143.2766  143.6464  162.4545 N.ar    1  UNL1       -0.2304
     20 C         142.3140  144.1541  161.4221 C.ar    1  UNL1        0.1682
     21 N         141.2594  145.1495  161.8053 N.am    1  UNL1       -0.2639
     22 H         141.1989  145.4696  162.7344 H       1  UNL1        0.1565
     23 C         139.9139  138.6858  165.6236 C.3     1  UNL1        0.0970
     24 C         138.6461  139.4105  165.2807 C.3     1  UNL1        0.1264
     25 N         138.3982  139.8627  163.8721 N.ar    1  UNL1       -0.2926
     26 C         138.3762  138.8610  162.7558 C.ar    1  UNL1        0.2611
     27 O         138.6022  137.4072  163.0481 O.2     1  UNL1       -0.2670
     28 C         138.1282  139.3131  161.3472 C.ar    1  UNL1        0.0623
     29 C         137.9022  140.7670  161.0549 C.ar    1  UNL1        0.0255
     30 C         137.9242  141.7686  162.1713 C.ar    1  UNL1        0.0974
     31 N         137.6982  143.2224  161.8790 N.ar    1  UNL1       -0.2400
     32 C         137.7201  144.2240  162.9954 C.ar    1  UNL1        0.1285
     33 C         137.9681  143.7719  164.4039 C.ar    1  UNL1        0.1607
     34 F         137.9901  144.7736  165.5202 F       1  UNL1       -0.2025
     35 C         138.1941  142.3181  164.6962 C.ar    1  UNL1        0.0500
     36 C         138.1722  141.3164  163.5799 C.ar    1  UNL1        0.0824
@<TRIPOS>BOND
     1    11    12    2
     2    12    13    1
     3    13    14    1
     4    14    15    1
     5    15    16   ar
     6    16    17   ar
     7    17    18   ar
     8    18    10    1
     9    10     8    1
    10     1     8    1
    11     1     2    1
    12     2     3    1
    13     3     4    1
    14     4    23    1
    15    23    24    1
    16    24    25    1
    17    25    26   ar
    18    26    27    2
    19    26    28   ar
    20    28    29   ar
    21    29    30   ar
    22    30    31   ar
    23    31    32   ar
    24    32    33   ar
    25    33    34    1
    26    33    35   ar
    27    35    36   ar
    28     4     5    1
    29     5     6    1
    30     6     7    1
    31    18    19   ar
    32    19    20   ar
    33    20    21    1
    34    21    12   am
    35    20    15   ar
    36     6     1    1
    37    36    25   ar
    38    36    30   ar
    39     8     9    1
    40    21    22    1
@<TRIPOS>MOLECULE
*****
 36 40 0 0 0
SMALL
GASTEIGER

@<TRIPOS>ATOM
      1 C         140.3981  143.8833  161.6801 C.3     1  UNL1        0.0901
      2 C         141.6873  143.3214  161.1584 C.3     1  UNL1        0.0359
      3 C         142.9535  143.4953  161.9436 C.3     1  UNL1        0.0737
      4 N         142.9305  144.2312  163.2505 N.3     1  UNL1       -0.2687
      5 C         141.6412  144.7932  163.7721 C.3     1  UNL1        0.1092
      6 C         140.3751  144.6192  162.9870 C.3     1  UNL1        0.1911
      7 F         139.0859  145.1812  163.5086 F       1  UNL1       -0.2343
      8 N         139.1320  143.7094  160.8949 N.3     1  UNL1       -0.2913
      9 H         138.7820  144.6452  160.6894 H       1  UNL1        0.1236
     10 C         137.9865  142.9376  161.4801 C.3     1  UNL1        0.1152
     11 O         137.6622  138.3618  167.7815 O.2     1  UNL1       -0.2707
     12 C         138.0170  138.5612  166.3377 C.2     1  UNL1        0.2718
     13 C         138.6185  137.4349  165.5507 C.3     1  UNL1        0.2898
     14 O         138.9733  137.6343  164.1070 O.3     1  UNL1       -0.4628
     15 C         138.7267  138.9601  163.4503 C.ar    1  UNL1        0.1708
     16 C         139.0815  139.1595  162.0066 C.ar    1  UNL1        0.0411
     17 C         138.8348  140.4853  161.3498 C.ar    1  UNL1        0.0193
     18 C         138.2332  141.6118  162.1368 C.ar    1  UNL1        0.0765
     19 N         137.8784  141.4124  163.5805 N.ar    1  UNL1       -0.2304
     20 C         138.1251  140.0865  164.2373 C.ar    1  UNL1        0.1682
     21 N         137.7703  139.8870  165.6810 N.am    1  UNL1       -0.2639
     22 H         137.3755  140.6264  166.1975 H       1  UNL1        0.1565
     23 C         144.1966  144.4052  164.0357 C.3     1  UNL1        0.0970
     24 C         144.5238  143.4569  165.1509 C.3     1  UNL1        0.1264
     25 N         144.2112  141.9966  165.0096 N.ar    1  UNL1       -0.2926
     26 C         144.9985  141.1501  164.0538 C.ar    1  UNL1        0.2611
     27 O         146.0984  141.7640  163.2391 O.2     1  UNL1       -0.2670
     28 C         144.6860  139.6899  163.9125 C.ar    1  UNL1        0.0623
     29 C         143.5861  139.0760  164.7271 C.ar    1  UNL1        0.0255
     30 C         142.7988  139.9225  165.6830 C.ar    1  UNL1        0.0974
     31 N         141.6990  139.3087  166.4976 N.ar    1  UNL1       -0.2400
     32 C         140.9117  140.1552  167.4535 C.ar    1  UNL1        0.1285
     33 C         141.2242  141.6154  167.5947 C.ar    1  UNL1        0.1607
     34 F         140.4369  142.4619  168.5506 F       1  UNL1       -0.2025
     35 C         142.3241  142.2293  166.7801 C.ar    1  UNL1        0.0500
     36 C         143.1114  141.3828  165.8242 C.ar    1  UNL1        0.0824
@<TRIPOS>BOND
     1    11    12    2
     2    12    13    1
     3    13    14    1
     4    14    15    1
     5    15    16   ar
     6    16    17   ar
     7    17    18   ar
     8    18    10    1
     9    10     8    1
    10     1     8    1
    11     1     2    1
    12     2     3    1
    13     3     4    1
    14     4    23    1
    15    23    24    1
    16    24    25    1
    17    25    26   ar
    18    26    27    2
    19    26    28   ar
    20    28    29   ar
    21    29    30   ar
    22    30    31   ar
    23    31    32   ar
    24    32    33   ar
    25    33    34    1
    26    33    35   ar
    27    35    36   ar
    28     4     5    1
    29     5     6    1
    30     6     7    1
    31    18    19   ar
    32    19    20   ar
    33    20    21    1
    34    21    12   am
    35    20    15   ar
    36     6     1    1
    37    36    25   ar
    38    36    30   ar
    39     8     9    1
    40    21    22    1
@<TRIPOS>MOLECULE
*****
 36 40 0 0 0
SMALL
GASTEIGER

@<TRIPOS>ATOM
      1 C         138.2155  141.6487  164.7148 C.3     1  UNL1        0.0901
      2 C         138.9998  142.9267  164.6770 C.3     1  UNL1        0.0359
      3 C         140.1290  143.1424  165.6407 C.3     1  UNL1        0.0737
      4 N         140.4738  142.0801  166.6420 N.3     1  UNL1       -0.2687
      5 C         139.6894  140.8021  166.6797 C.3     1  UNL1        0.1092
      6 C         138.5603  140.5864  165.7161 C.3     1  UNL1        0.1911
      7 F         137.7759  139.3084  165.7538 F       1  UNL1       -0.2343
      8 N         137.0864  141.4330  163.7512 N.3     1  UNL1       -0.2913
      9 H         136.4839  140.7180  164.1589 H       1  UNL1        0.1236
     10 C         137.3739  141.0051  162.3425 C.3     1  UNL1        0.1152
     11 O         144.3163  139.7059  159.0462 O.2     1  UNL1       -0.2707
     12 C         143.1535  139.2207  159.8602 C.2     1  UNL1        0.2718
     13 C         143.1422  137.8173  160.3895 C.3     1  UNL1        0.2898
     14 O         141.9795  137.3321  161.2036 O.3     1  UNL1       -0.4628
     15 C         140.8281  138.2503  161.4883 C.ar    1  UNL1        0.1708
     16 C         139.6654  137.7651  162.3023 C.ar    1  UNL1        0.0411
     17 C         138.5140  138.6834  162.5871 C.ar    1  UNL1        0.0193
     18 C         138.5253  140.0869  162.0578 C.ar    1  UNL1        0.0765
     19 N         139.6880  140.5721  161.2437 N.ar    1  UNL1       -0.2304
     20 C         140.8394  139.6537  160.9590 C.ar    1  UNL1        0.1682
     21 N         142.0022  140.1389  160.1450 N.am    1  UNL1       -0.2639
     22 H         142.0096  141.0601  159.7976 H       1  UNL1        0.1565
     23 C         141.6029  142.2958  167.6056 C.3     1  UNL1        0.0970
     24 C         143.0186  142.0689  167.1649 C.3     1  UNL1        0.1264
     25 N         143.3025  141.2193  165.9617 N.ar    1  UNL1       -0.2926
     26 C         143.2487  139.7241  166.0697 C.ar    1  UNL1        0.2611
     27 O         142.9109  139.0786  167.3809 O.2     1  UNL1       -0.2670
     28 C         143.5326  138.8746  164.8666 C.ar    1  UNL1        0.0623
     29 C         143.8704  139.5201  163.5554 C.ar    1  UNL1        0.0255
     30 C         143.9243  141.0152  163.4473 C.ar    1  UNL1        0.0974
     31 N         144.2621  141.6608  162.1362 N.ar    1  UNL1       -0.2400
     32 C         144.3159  143.1559  162.0282 C.ar    1  UNL1        0.1285
     33 C         144.0320  144.0055  163.2313 C.ar    1  UNL1        0.1607
     34 F         144.0858  145.5006  163.1233 F       1  UNL1       -0.2025
     35 C         143.6942  143.3600  164.5425 C.ar    1  UNL1        0.0500
     36 C         143.6403  141.8648  164.6506 C.ar    1  UNL1        0.0824
@<TRIPOS>BOND
     1    11    12    2
     2    12    13    1
     3    13    14    1
     4    14    15    1
     5    15    16   ar
     6    16    17   ar
     7    17    18   ar
     8    18    10    1
     9    10     8    1
    10     1     8    1
    11     1     2    1
    12     2     3    1
    13     3     4    1
    14     4    23    1
    15    23    24    1
    16    24    25    1
    17    25    26   ar
    18    26    27    2
    19    26    28   ar
    20    28    29   ar
    21    29    30   ar
    22    30    31   ar
    23    31    32   ar
    24    32    33   ar
    25    33    34    1
    26    33    35   ar
    27    35    36   ar
    28     4     5    1
    29     5     6    1
    30     6     7    1
    31    18    19   ar
    32    19    20   ar
    33    20    21    1
    34    21    12   am
    35    20    15   ar
    36     6     1    1
    37    36    25   ar
    38    36    30   ar
    39     8     9    1
    40    21    22    1
@<TRIPOS>MOLECULE
*****
 36 40 0 0 0
SMALL
GASTEIGER

@<TRIPOS>ATOM
      1 C         144.3045  139.7748  163.3716 C.3     1  UNL1        0.0901
      2 C         143.9416  139.4446  164.7890 C.3     1  UNL1        0.0359
      3 C         142.6705  138.7052  165.0851 C.3     1  UNL1        0.0737
      4 N         141.7622  138.2961  163.9636 N.3     1  UNL1       -0.2687
      5 C         142.1251  138.6264  162.5461 C.3     1  UNL1        0.1092
      6 C         143.3962  139.3658  162.2501 C.3     1  UNL1        0.1911
      7 F         143.7591  139.6960  160.8326 F       1  UNL1       -0.2343
      8 N         145.5756  140.5142  163.0756 N.3     1  UNL1       -0.2913
      9 H         146.3201  140.0338  163.5810 H       1  UNL1        0.1236
     10 C         145.6922  141.9708  163.4143 C.3     1  UNL1        0.1152
     11 O         140.3893  145.3727  158.8255 O.2     1  UNL1       -0.2707
     12 C         140.9732  145.1447  160.1883 C.2     1  UNL1        0.2718
     13 C         140.3732  145.8226  161.3843 C.3     1  UNL1        0.2898
     14 O         140.9570  145.5946  162.7471 O.3     1  UNL1       -0.4628
     15 C         142.1408  144.6887  162.9139 C.ar    1  UNL1        0.1708
     16 C         142.7246  144.4606  164.2766 C.ar    1  UNL1        0.0411
     17 C         143.9084  143.5547  164.4435 C.ar    1  UNL1        0.0193
     18 C         144.5084  142.8768  163.2474 C.ar    1  UNL1        0.0765
     19 N         143.9246  143.1048  161.8847 N.ar    1  UNL1       -0.2304
     20 C         142.7408  144.0108  161.7179 C.ar    1  UNL1        0.1682
     21 N         142.1570  144.2388  160.3551 N.am    1  UNL1       -0.2639
     22 H         142.5508  143.7938  159.5701 H       1  UNL1        0.1565
     23 C         140.4911  137.5568  164.2595 C.3     1  UNL1        0.0970
     24 C         139.2620  138.3125  164.6695 C.3     1  UNL1        0.1264
     25 N         138.7954  139.4834  163.8563 N.ar    1  UNL1       -0.2926
     26 C         138.1182  139.2580  162.5369 C.ar    1  UNL1        0.2611
     27 O         137.9077  137.8617  162.0308 O.2     1  UNL1       -0.2670
     28 C         137.6516  140.4288  161.7237 C.ar    1  UNL1        0.0623
     29 C         137.8621  141.8252  162.2298 C.ar    1  UNL1        0.0255
     30 C         138.5393  142.0506  163.5491 C.ar    1  UNL1        0.0974
     31 N         138.7498  143.4468  164.0552 N.ar    1  UNL1       -0.2400
     32 C         139.4270  143.6722  165.3745 C.ar    1  UNL1        0.1285
     33 C         139.8936  142.5014  166.1878 C.ar    1  UNL1        0.1607
     34 F         140.5707  142.7268  167.5071 F       1  UNL1       -0.2025
     35 C         139.6831  141.1051  165.6817 C.ar    1  UNL1        0.0500
     36 C         139.0059  140.8797  164.3624 C.ar    1  UNL1        0.0824
@<TRIPOS>BOND
     1    11    12    2
     2    12    13    1
     3    13    14    1
     4    14    15    1
     5    15    16   ar
     6    16    17   ar
     7    17    18   ar
     8    18    10    1
     9    10     8    1
    10     1     8    1
    11     1     2    1
    12     2     3    1
    13     3     4    1
    14     4    23    1
    15    23    24    1
    16    24    25    1
    17    25    26   ar
    18    26    27    2
    19    26    28   ar
    20    28    29   ar
    21    29    30   ar
    22    30    31   ar
    23    31    32   ar
    24    32    33   ar
    25    33    34    1
    26    33    35   ar
    27    35    36   ar
    28     4     5    1
    29     5     6    1
    30     6     7    1
    31    18    19   ar
    32    19    20   ar
    33    20    21    1
    34    21    12   am
    35    20    15   ar
    36     6     1    1
    37    36    25   ar
    38    36    30   ar
    39     8     9    1
    40    21    22    1
@<TRIPOS>MOLECULE
*****
 36 40 0 0 0
SMALL
GASTEIGER

@<TRIPOS>ATOM
      1 C         138.1044  141.5277  164.1957 C.3     1  UNL1        0.0901
      2 C         138.6997  142.6130  165.0429 C.3     1  UNL1        0.0359
      3 C         139.0205  143.9470  164.4365 C.3     1  UNL1        0.0737
      4 N         138.7460  144.1956  162.9829 N.3     1  UNL1       -0.2687
      5 C         138.1507  143.1103  162.1358 C.3     1  UNL1        0.1092
      6 C         137.8299  141.7764  162.7421 C.3     1  UNL1        0.1911
      7 F         137.2347  140.6911  161.8950 F       1  UNL1       -0.2343
      8 N         137.7837  140.1938  164.8021 N.3     1  UNL1       -0.2913
      9 H         137.3607  140.3780  165.7118 H       1  UNL1        0.1236
     10 C         138.8756  139.1903  165.0274 C.3     1  UNL1        0.1152
     11 O         140.7879  141.8746  172.0905 O.2     1  UNL1       -0.2707
     12 C         141.1806  141.2184  170.8001 C.2     1  UNL1        0.2718
     13 C         142.6034  140.8009  170.5735 C.3     1  UNL1        0.2898
     14 O         142.9960  140.1448  169.2830 O.3     1  UNL1       -0.4628
     15 C         141.9660  139.9062  168.2191 C.ar    1  UNL1        0.1708
     16 C         142.3586  139.2500  166.9287 C.ar    1  UNL1        0.0411
     17 C         141.3285  139.0114  165.8648 C.ar    1  UNL1        0.0193
     18 C         139.9057  139.4289  166.0913 C.ar    1  UNL1        0.0765
     19 N         139.5130  140.0851  167.3818 N.ar    1  UNL1       -0.2304
     20 C         140.5432  140.3237  168.4457 C.ar    1  UNL1        0.1682
     21 N         140.1505  140.9798  169.7362 N.am    1  UNL1       -0.2639
     22 H         139.2167  141.2538  169.8849 H       1  UNL1        0.1565
     23 C         139.0668  145.5295  162.3765 C.3     1  UNL1        0.0970
     24 C         140.4853  145.8757  162.0333 C.3     1  UNL1        0.1264
     25 N         141.3194  144.9171  161.2361 N.ar    1  UNL1       -0.2926
     26 C         140.9937  144.6587  159.7948 C.ar    1  UNL1        0.2611
     27 O         139.8339  145.3590  159.1508 O.2     1  UNL1       -0.2670
     28 C         141.8277  143.7002  158.9976 C.ar    1  UNL1        0.0623
     29 C         142.9875  142.9999  159.6416 C.ar    1  UNL1        0.0255
     30 C         143.3131  143.2583  161.0829 C.ar    1  UNL1        0.0974
     31 N         144.4728  142.5581  161.7269 N.ar    1  UNL1       -0.2400
     32 C         144.7985  142.8165  163.1682 C.ar    1  UNL1        0.1285
     33 C         143.9645  143.7750  163.9654 C.ar    1  UNL1        0.1607
     34 F         144.2902  144.0334  165.4066 F       1  UNL1       -0.2025
     35 C         142.8047  144.4753  163.3213 C.ar    1  UNL1        0.0500
     36 C         142.4791  144.2169  161.8801 C.ar    1  UNL1        0.0824
@<TRIPOS>BOND
     1    11    12    2
     2    12    13    1
     3    13    14    1
     4    14    15    1
     5    15    16   ar
     6    16    17   ar
     7    17    18   ar
     8    18    10    1
     9    10     8    1
    10     1     8    1
    11     1     2    1
    12     2     3    1
    13     3     4    1
    14     4    23    1
    15    23    24    1
    16    24    25    1
    17    25    26   ar
    18    26    27    2
    19    26    28   ar
    20    28    29   ar
    21    29    30   ar
    22    30    31   ar
    23    31    32   ar
    24    32    33   ar
    25    33    34    1
    26    33    35   ar
    27    35    36   ar
    28     4     5    1
    29     5     6    1
    30     6     7    1
    31    18    19   ar
    32    19    20   ar
    33    20    21    1
    34    21    12   am
    35    20    15   ar
    36     6     1    1
    37    36    25   ar
    38    36    30   ar
    39     8     9    1
    40    21    22    1
@<TRIPOS>MOLECULE
*****
 36 40 0 0 0
SMALL
GASTEIGER

@<TRIPOS>ATOM
      1 C         143.3126  139.1372  163.2095 C.3     1  UNL1        0.0901
      2 C         142.0931  139.1398  162.3363 C.3     1  UNL1        0.0359
      3 C         140.7663  138.7244  162.8996 C.3     1  UNL1        0.0737
      4 N         140.6593  138.3063  164.3362 N.3     1  UNL1       -0.2687
      5 C         141.8790  138.3037  165.2094 C.3     1  UNL1        0.1092
      6 C         143.2056  138.7191  164.6460 C.3     1  UNL1        0.1911
      7 F         144.4252  138.7164  165.5192 F       1  UNL1       -0.2343
      8 N         144.6393  139.5526  162.6461 N.3     1  UNL1       -0.2913
      9 H         145.3401  138.9366  163.0582 H       1  UNL1        0.1236
     10 C         145.1297  140.9569  162.8395 C.3     1  UNL1        0.1152
     11 O         139.8257  145.6550  159.5920 O.2     1  UNL1       -0.2707
     12 C         140.6118  145.2168  160.7921 C.2     1  UNL1        0.2718
     13 C         140.4160  145.9064  162.1096 C.3     1  UNL1        0.2898
     14 O         141.2020  145.4682  163.3097 O.3     1  UNL1       -0.4628
     15 C         142.1840  144.3404  163.1921 C.ar    1  UNL1        0.1708
     16 C         142.9700  143.9022  164.3922 C.ar    1  UNL1        0.0411
     17 C         143.9519  142.7744  164.2746 C.ar    1  UNL1        0.0193
     18 C         144.1478  142.0847  162.9570 C.ar    1  UNL1        0.0765
     19 N         143.3617  142.5229  161.7570 N.ar    1  UNL1       -0.2304
     20 C         142.3798  143.6508  161.8746 C.ar    1  UNL1        0.1682
     21 N         141.5937  144.0890  160.6745 N.am    1  UNL1       -0.2639
     22 H         141.7222  143.6363  159.8098 H       1  UNL1        0.1565
     23 C         139.3327  137.8909  164.8996 C.3     1  UNL1        0.0970
     24 C         138.4990  138.8783  165.6612 C.3     1  UNL1        0.1264
     25 N         138.9251  140.3142  165.7432 N.ar    1  UNL1       -0.2926
     26 C         138.5850  141.2621  164.6315 C.ar    1  UNL1        0.2611
     27 O         137.8188  140.7740  163.4378 O.2     1  UNL1       -0.2670
     28 C         139.0110  142.6979  164.7135 C.ar    1  UNL1        0.0623
     29 C         139.7771  143.1860  165.9072 C.ar    1  UNL1        0.0255
     30 C         140.1172  142.2381  167.0189 C.ar    1  UNL1        0.0974
     31 N         140.8834  142.7262  168.2126 N.ar    1  UNL1       -0.2400
     32 C         141.2235  141.7783  169.3243 C.ar    1  UNL1        0.1285
     33 C         140.7975  140.3424  169.2423 C.ar    1  UNL1        0.1607
     34 F         141.1376  139.3946  170.3540 F       1  UNL1       -0.2025
     35 C         140.0313  139.8544  168.0486 C.ar    1  UNL1        0.0500
     36 C         139.6912  140.8022  166.9369 C.ar    1  UNL1        0.0824
@<TRIPOS>BOND
     1    11    12    2
     2    12    13    1
     3    13    14    1
     4    14    15    1
     5    15    16   ar
     6    16    17   ar
     7    17    18   ar
     8    18    10    1
     9    10     8    1
    10     1     8    1
    11     1     2    1
    12     2     3    1
    13     3     4    1
    14     4    23    1
    15    23    24    1
    16    24    25    1
    17    25    26   ar
    18    26    27    2
    19    26    28   ar
    20    28    29   ar
    21    29    30   ar
    22    30    31   ar
    23    31    32   ar
    24    32    33   ar
    25    33    34    1
    26    33    35   ar
    27    35    36   ar
    28     4     5    1
    29     5     6    1
    30     6     7    1
    31    18    19   ar
    32    19    20   ar
    33    20    21    1
    34    21    12   am
    35    20    15   ar
    36     6     1    1
    37    36    25   ar
    38    36    30   ar
    39     8     9    1
    40    21    22    1
