@<TRIPOS>MOLECULE
*****
 26 28 0 0 0
SMALL
GASTEIGER

@<TRIPOS>ATOM
      1 C         138.7285  137.7547  164.0442 C.3     1  UNL1        0.0992
      2 C         139.7900  139.7763  165.2837 C.2     1  UNL1       -0.0032
      3 C         138.8707  138.5910  165.2812 C.2     1  UNL1       -0.0088
      4 C         140.2165  142.2851  168.9950 C.ar    1  UNL1        0.0756
      5 C         140.5113  142.8797  167.6498 C.ar    1  UNL1        0.0064
      6 C         140.3691  142.0434  166.4128 C.ar    1  UNL1        0.0002
      7 C         139.9322  140.6126  166.5209 C.ar    1  UNL1       -0.0003
      8 C         139.6374  140.0180  167.8660 C.ar    1  UNL1        0.0002
      9 C         139.7796  140.8542  169.1031 C.ar    1  UNL1        0.0064
     10 C         140.3587  143.1214  170.2321 C.2     1  UNL1        0.3413
     11 O         139.2036  143.2631  171.1785 O.2     1  UNL1       -0.2449
     12 C         142.9441  143.0485  170.4782 C.3     1  UNL1        0.2560
     13 O         141.6560  143.8159  170.5229 O.3     1  UNL1       -0.4413
     14 N         139.0119  138.3526  162.6980 N.3     1  UNL1       -0.2639
     15 C         140.2690  137.9885  161.9652 C.3     1  UNL1        0.0902
     16 C         138.0381  139.3146  162.0846 C.3     1  UNL1        0.0995
     17 C         138.2336  140.7918  162.2570 C.ar    1  UNL1       -0.0031
     18 C         137.4396  141.5382  163.2878 C.ar    1  UNL1       -0.0030
     19 C         137.6350  143.0153  163.4602 C.ar    1  UNL1       -0.0016
     20 C         138.6244  143.7462  162.6018 C.ar    1  UNL1        0.0119
     21 C         139.4184  142.9999  161.5710 C.ar    1  UNL1        0.1342
     22 C         139.2230  141.5227  161.3986 C.ar    1  UNL1        0.0337
     23 O         140.4078  143.7308  160.7126 O.3     1  UNL1       -0.4758
     24 C         140.6032  145.2079  160.8850 C.3     1  UNL1        0.2057
     25 C         139.8092  145.9542  161.9158 C.3     1  UNL1        0.0521
     26 C         138.8198  145.2234  162.7742 C.3     1  UNL1        0.0333
@<TRIPOS>BOND
     1    12    13    1
     2    13    10    1
     3    10    11    2
     4    10     4    1
     5     4     5   ar
     6     5     6   ar
     7     6     7   ar
     8     7     2    1
     9     2     3    2
    10     3     1    1
    11     1    14    1
    12    14    15    1
    13    14    16    1
    14    16    17    1
    15    17    18   ar
    16    18    19   ar
    17    19    20   ar
    18    20    21   ar
    19    21    22   ar
    20    21    23    1
    21    23    24    1
    22    24    25    1
    23    25    26    1
    24     7     8   ar
    25     8     9   ar
    26     9     4   ar
    27    22    17   ar
    28    26    20    1
@<TRIPOS>MOLECULE
*****
 26 28 0 0 0
SMALL
GASTEIGER

@<TRIPOS>ATOM
      1 C         144.9141  140.9849  163.6339 C.3     1  UNL1        0.0992
      2 C         143.8058  142.3260  165.5634 C.2     1  UNL1       -0.0032
      3 C         143.9685  141.0471  164.7967 C.2     1  UNL1       -0.0088
      4 C         140.9691  142.5125  169.0517 C.ar    1  UNL1        0.0756
      5 C         140.4336  142.4616  167.6515 C.ar    1  UNL1        0.0064
      6 C         141.3792  142.3994  166.4888 C.ar    1  UNL1        0.0002
      7 C         142.8602  142.3882  166.7262 C.ar    1  UNL1       -0.0003
      8 C         143.3957  142.4392  168.1264 C.ar    1  UNL1        0.0002
      9 C         142.4501  142.5013  169.2892 C.ar    1  UNL1        0.0064
     10 C         140.0235  142.5747  170.2145 C.2     1  UNL1        0.3413
     11 O         139.6353  143.9020  170.7954 O.2     1  UNL1       -0.2449
     12 C         140.2105  140.0175  170.6334 C.3     1  UNL1        0.2560
     13 O         139.4661  141.3095  170.7964 O.3     1  UNL1       -0.4413
     14 N         144.3992  141.1730  162.2376 N.3     1  UNL1       -0.2639
     15 C         144.3819  140.0166  161.2825 C.3     1  UNL1        0.0902
     16 C         143.9017  142.5175  161.7965 C.3     1  UNL1        0.0995
     17 C         142.6950  143.1225  162.4509 C.ar    1  UNL1       -0.0031
     18 C         142.7480  144.5302  162.9664 C.ar    1  UNL1       -0.0030
     19 C         141.5415  145.1351  163.6208 C.ar    1  UNL1       -0.0016
     20 C         140.2819  144.3324  163.7598 C.ar    1  UNL1        0.0119
     21 C         140.2290  142.9248  163.2443 C.ar    1  UNL1        0.1342
     22 C         141.4356  142.3198  162.5899 C.ar    1  UNL1        0.0337
     23 O         138.9695  142.1221  163.3833 O.3     1  UNL1       -0.4758
     24 C         137.7630  142.7271  164.0377 C.3     1  UNL1        0.2057
     25 C         137.8159  144.1347  164.5531 C.3     1  UNL1        0.0521
     26 C         139.0754  144.9374  164.4141 C.3     1  UNL1        0.0333
@<TRIPOS>BOND
     1    12    13    1
     2    13    10    1
     3    10    11    2
     4    10     4    1
     5     4     5   ar
     6     5     6   ar
     7     6     7   ar
     8     7     2    1
     9     2     3    2
    10     3     1    1
    11     1    14    1
    12    14    15    1
    13    14    16    1
    14    16    17    1
    15    17    18   ar
    16    18    19   ar
    17    19    20   ar
    18    20    21   ar
    19    21    22   ar
    20    21    23    1
    21    23    24    1
    22    24    25    1
    23    25    26    1
    24     7     8   ar
    25     8     9   ar
    26     9     4   ar
    27    22    17   ar
    28    26    20    1
@<TRIPOS>MOLECULE
*****
 26 28 0 0 0
SMALL
GASTEIGER

@<TRIPOS>ATOM
      1 C         139.0221  137.6148  163.7039 C.3     1  UNL1        0.0992
      2 C         139.2510  139.7112  165.2213 C.2     1  UNL1       -0.0032
      3 C         139.2635  138.2205  165.0547 C.2     1  UNL1       -0.0088
      4 C         139.9751  141.5282  169.2739 C.ar    1  UNL1        0.0756
      5 C         139.1895  140.2564  169.1518 C.ar    1  UNL1        0.0064
      6 C         138.9481  139.6507  167.8010 C.ar    1  UNL1        0.0002
      7 C         139.4924  140.3169  166.5722 C.ar    1  UNL1       -0.0003
      8 C         140.2781  141.5888  166.6943 C.ar    1  UNL1        0.0002
      9 C         140.5195  142.1945  168.0452 C.ar    1  UNL1        0.0064
     10 C         140.2165  142.1340  170.6249 C.2     1  UNL1        0.3413
     11 O         139.3677  143.2771  171.0968 O.2     1  UNL1       -0.2449
     12 C         142.3510  140.6847  170.9310 C.3     1  UNL1        0.2560
     13 O         141.3068  141.5965  171.5038 O.3     1  UNL1       -0.4413
     14 N         139.9392  137.9386  162.5620 N.3     1  UNL1       -0.2639
     15 C         139.3707  138.2660  161.2130 C.3     1  UNL1        0.0902
     16 C         141.4248  137.9351  162.7689 C.3     1  UNL1        0.0995
     17 C         142.0967  139.1176  163.4017 C.ar    1  UNL1       -0.0031
     18 C         142.8531  138.9518  164.6864 C.ar    1  UNL1       -0.0030
     19 C         143.5250  140.1341  165.3192 C.ar    1  UNL1       -0.0016
     20 C         143.4405  141.4825  164.6673 C.ar    1  UNL1        0.0119
     21 C         142.6841  141.6484  163.3827 C.ar    1  UNL1        0.1342
     22 C         142.0122  140.4659  162.7499 C.ar    1  UNL1        0.0337
     23 O         142.5996  142.9967  162.7308 O.3     1  UNL1       -0.4758
     24 C         143.2715  144.1790  163.3636 C.3     1  UNL1        0.2057
     25 C         144.0279  144.0132  164.6483 C.3     1  UNL1        0.0521
     26 C         144.1124  142.6649  165.3001 C.3     1  UNL1        0.0333
@<TRIPOS>BOND
     1    12    13    1
     2    13    10    1
     3    10    11    2
     4    10     4    1
     5     4     5   ar
     6     5     6   ar
     7     6     7   ar
     8     7     2    1
     9     2     3    2
    10     3     1    1
    11     1    14    1
    12    14    15    1
    13    14    16    1
    14    16    17    1
    15    17    18   ar
    16    18    19   ar
    17    19    20   ar
    18    20    21   ar
    19    21    22   ar
    20    21    23    1
    21    23    24    1
    22    24    25    1
    23    25    26    1
    24     7     8   ar
    25     8     9   ar
    26     9     4   ar
    27    22    17   ar
    28    26    20    1
@<TRIPOS>MOLECULE
*****
 26 28 0 0 0
SMALL
GASTEIGER

@<TRIPOS>ATOM
      1 C         144.6782  139.4624  163.7688 C.3     1  UNL1        0.0992
      2 C         142.6170  139.1083  165.3103 C.2     1  UNL1       -0.0032
      3 C         143.9244  139.7858  165.0247 C.2     1  UNL1       -0.0088
      4 C         140.3557  140.0786  169.0779 C.ar    1  UNL1        0.0756
      5 C         139.6505  140.0967  167.7542 C.ar    1  UNL1        0.0064
      6 C         140.4042  139.7733  166.4984 C.ar    1  UNL1        0.0002
      7 C         141.8632  139.4317  166.5662 C.ar    1  UNL1       -0.0003
      8 C         142.5685  139.4136  167.8899 C.ar    1  UNL1        0.0002
      9 C         141.8147  139.7370  169.1458 C.ar    1  UNL1        0.0064
     10 C         139.6020  140.4020  170.3339 C.2     1  UNL1        0.3413
     11 O         138.5242  139.4792  170.8204 O.2     1  UNL1       -0.2449
     12 C         140.0348  142.9631  170.3896 C.3     1  UNL1        0.2560
     13 O         139.9261  141.6483  171.1032 O.3     1  UNL1       -0.4413
     14 N         143.9600  139.4212  162.4526 N.3     1  UNL1       -0.2639
     15 C         143.8732  138.1351  161.6855 C.3     1  UNL1        0.0902
     16 C         143.3286  140.6660  161.9035 C.3     1  UNL1        0.0995
     17 C         142.0085  141.1363  162.4386 C.ar    1  UNL1       -0.0031
     18 C         140.8072  140.2411  162.3644 C.ar    1  UNL1       -0.0030
     19 C         139.4872  140.7113  162.8996 C.ar    1  UNL1       -0.0016
     20 C         139.3684  142.0768  163.5090 C.ar    1  UNL1        0.0119
     21 C         140.5697  142.9721  163.5832 C.ar    1  UNL1        0.1342
     22 C         141.8897  142.5018  163.0480 C.ar    1  UNL1        0.0337
     23 O         140.4509  144.3375  164.1926 O.3     1  UNL1       -0.4758
     24 C         139.1309  144.8077  164.7277 C.3     1  UNL1        0.2057
     25 C         137.9297  143.9125  164.6535 C.3     1  UNL1        0.0521
     26 C         138.0484  142.5470  164.0441 C.3     1  UNL1        0.0333
@<TRIPOS>BOND
     1    12    13    1
     2    13    10    1
     3    10    11    2
     4    10     4    1
     5     4     5   ar
     6     5     6   ar
     7     6     7   ar
     8     7     2    1
     9     2     3    2
    10     3     1    1
    11     1    14    1
    12    14    15    1
    13    14    16    1
    14    16    17    1
    15    17    18   ar
    16    18    19   ar
    17    19    20   ar
    18    20    21   ar
    19    21    22   ar
    20    21    23    1
    21    23    24    1
    22    24    25    1
    23    25    26    1
    24     7     8   ar
    25     8     9   ar
    26     9     4   ar
    27    22    17   ar
    28    26    20    1
@<TRIPOS>MOLECULE
*****
 26 28 0 0 0
SMALL
GASTEIGER

@<TRIPOS>ATOM
      1 C         141.0864  137.0358  163.5416 C.3     1  UNL1        0.0992
      2 C         141.6878  138.8881  165.2613 C.2     1  UNL1       -0.0032
      3 C         140.8814  137.6822  164.8795 C.2     1  UNL1       -0.0088
      4 C         141.0726  140.8274  169.2751 C.ar    1  UNL1        0.0756
      5 C         139.8972  140.5650  168.3809 C.ar    1  UNL1        0.0064
      6 C         140.1023  139.9185  167.0430 C.ar    1  UNL1        0.0002
      7 C         141.4828  139.5345  166.5993 C.ar    1  UNL1       -0.0003
      8 C         142.6581  139.7970  167.4934 C.ar    1  UNL1        0.0002
      9 C         142.4531  140.4434  168.8313 C.ar    1  UNL1        0.0064
     10 C         140.8676  141.4739  170.6130 C.2     1  UNL1        0.3413
     11 O         140.4123  140.6511  171.7817 O.2     1  UNL1       -0.2449
     12 C         140.5088  143.9230  169.8237 C.3     1  UNL1        0.2560
     13 O         141.1178  142.9432  170.7823 O.3     1  UNL1       -0.4413
     14 N         141.2144  137.8835  162.3108 N.3     1  UNL1       -0.2639
     15 C         142.5212  137.9481  161.5772 C.3     1  UNL1        0.0902
     16 C         140.0357  138.6665  161.8134 C.3     1  UNL1        0.0995
     17 C         139.5758  139.8843  162.5588 C.ar    1  UNL1       -0.0031
     18 C         138.2631  139.8682  163.2844 C.ar    1  UNL1       -0.0030
     19 C         137.8031  141.0859  164.0298 C.ar    1  UNL1       -0.0016
     20 C         138.6559  142.3198  164.0495 C.ar    1  UNL1        0.0119
     21 C         139.9687  142.3359  163.3239 C.ar    1  UNL1        0.1342
     22 C         140.4286  141.1181  162.5786 C.ar    1  UNL1        0.0337
     23 O         140.8215  143.5697  163.3437 O.3     1  UNL1       -0.4758
     24 C         140.3615  144.7874  164.0890 C.3     1  UNL1        0.2057
     25 C         139.0488  144.7713  164.8146 C.3     1  UNL1        0.0521
     26 C         138.1960  143.5375  164.7949 C.3     1  UNL1        0.0333
@<TRIPOS>BOND
     1    12    13    1
     2    13    10    1
     3    10    11    2
     4    10     4    1
     5     4     5   ar
     6     5     6   ar
     7     6     7   ar
     8     7     2    1
     9     2     3    2
    10     3     1    1
    11     1    14    1
    12    14    15    1
    13    14    16    1
    14    16    17    1
    15    17    18   ar
    16    18    19   ar
    17    19    20   ar
    18    20    21   ar
    19    21    22   ar
    20    21    23    1
    21    23    24    1
    22    24    25    1
    23    25    26    1
    24     7     8   ar
    25     8     9   ar
    26     9     4   ar
    27    22    17   ar
    28    26    20    1
@<TRIPOS>MOLECULE
*****
 26 28 0 0 0
SMALL
GASTEIGER

@<TRIPOS>ATOM
      1 C         143.5655  138.7031  163.2316 C.3     1  UNL1        0.0992
      2 C         143.0712  139.3367  165.7023 C.2     1  UNL1       -0.0032
      3 C         142.5843  139.0415  164.3146 C.2     1  UNL1       -0.0088
      4 C         140.1274  140.3518  168.9509 C.ar    1  UNL1        0.0756
      5 C         139.7531  140.5478  167.5117 C.ar    1  UNL1        0.0064
      6 C         140.7344  140.2094  166.4289 C.ar    1  UNL1        0.0002
      7 C         142.0899  139.6751  166.7852 C.ar    1  UNL1       -0.0003
      8 C         142.4642  139.4791  168.2245 C.ar    1  UNL1        0.0002
      9 C         141.4830  139.8174  169.3073 C.ar    1  UNL1        0.0064
     10 C         139.1462  140.6902  170.0339 C.2     1  UNL1        0.3413
     11 O         138.1057  139.6900  170.4425 O.2     1  UNL1       -0.2449
     12 C         140.1012  143.1027  170.1658 C.3     1  UNL1        0.2560
     13 O         139.2054  142.0288  170.7082 O.3     1  UNL1       -0.4413
     14 N         143.7543  139.6360  162.0723 N.3     1  UNL1       -0.2639
     15 C         143.8095  139.0941  160.6748 C.3     1  UNL1        0.0902
     16 C         143.8878  141.1109  162.3105 C.3     1  UNL1        0.0995
     17 C         142.7835  141.8637  162.9918 C.ar    1  UNL1       -0.0031
     18 C         143.0663  142.6403  164.2435 C.ar    1  UNL1       -0.0030
     19 C         141.9620  143.3930  164.9247 C.ar    1  UNL1       -0.0016
     20 C         140.5749  143.3691  164.3542 C.ar    1  UNL1        0.0119
     21 C         140.2921  142.5925  163.1024 C.ar    1  UNL1        0.1342
     22 C         141.3964  141.8397  162.4212 C.ar    1  UNL1        0.0337
     23 O         138.9051  142.5685  162.5319 O.3     1  UNL1       -0.4758
     24 C         137.8009  143.3212  163.2131 C.3     1  UNL1        0.2057
     25 C         138.0837  144.0979  164.4649 C.3     1  UNL1        0.0521
     26 C         139.4707  144.1218  165.0354 C.3     1  UNL1        0.0333
@<TRIPOS>BOND
     1    12    13    1
     2    13    10    1
     3    10    11    2
     4    10     4    1
     5     4     5   ar
     6     5     6   ar
     7     6     7   ar
     8     7     2    1
     9     2     3    2
    10     3     1    1
    11     1    14    1
    12    14    15    1
    13    14    16    1
    14    16    17    1
    15    17    18   ar
    16    18    19   ar
    17    19    20   ar
    18    20    21   ar
    19    21    22   ar
    20    21    23    1
    21    23    24    1
    22    24    25    1
    23    25    26    1
    24     7     8   ar
    25     8     9   ar
    26     9     4   ar
    27    22    17   ar
    28    26    20    1
@<TRIPOS>MOLECULE
*****
 26 28 0 0 0
SMALL
GASTEIGER

@<TRIPOS>ATOM
      1 C         141.6136  144.9019  162.6840 C.3     1  UNL1        0.0992
      2 C         142.0110  143.1416  164.5530 C.2     1  UNL1       -0.0032
      3 C         141.5995  144.5221  164.1350 C.2     1  UNL1       -0.0088
      4 C         141.9686  142.0023  168.9062 C.ar    1  UNL1        0.0756
      5 C         140.6768  142.2110  168.1729 C.ar    1  UNL1        0.0064
      6 C         140.6910  142.5908  166.7219 C.ar    1  UNL1        0.0002
      7 C         141.9969  142.7618  166.0041 C.ar    1  UNL1       -0.0003
      8 C         143.2887  142.5531  166.7373 C.ar    1  UNL1        0.0002
      9 C         143.2746  142.1733  168.1883 C.ar    1  UNL1        0.0064
     10 C         141.9545  141.6225  170.3573 C.2     1  UNL1        0.3413
     11 O         141.2762  142.5102  171.3583 O.2     1  UNL1       -0.2449
     12 C         142.4101  139.0848  170.0374 C.3     1  UNL1        0.2560
     13 O         142.6187  140.3551  170.8073 O.3     1  UNL1       -0.4413
     14 N         140.3289  144.9625  161.9120 N.3     1  UNL1       -0.2639
     15 C         139.7145  146.2903  161.5813 C.3     1  UNL1        0.0902
     16 C         139.6586  143.6952  161.4708 C.3     1  UNL1        0.0995
     17 C         139.2692  142.6604  162.4846 C.ar    1  UNL1       -0.0031
     18 C         138.2803  142.9992  163.5603 C.ar    1  UNL1       -0.0030
     19 C         137.8909  141.9645  164.5741 C.ar    1  UNL1       -0.0016
     20 C         138.4905  140.5909  164.5121 C.ar    1  UNL1        0.0119
     21 C         139.4794  140.2521  163.4363 C.ar    1  UNL1        0.1342
     22 C         139.8688  141.2869  162.4226 C.ar    1  UNL1        0.0337
     23 O         140.0789  138.8785  163.3743 O.3     1  UNL1       -0.4758
     24 C         139.6896  137.8438  164.3880 C.3     1  UNL1        0.2057
     25 C         138.7007  138.1826  165.4638 C.3     1  UNL1        0.0521
     26 C         138.1011  139.5562  165.5258 C.3     1  UNL1        0.0333
@<TRIPOS>BOND
     1    12    13    1
     2    13    10    1
     3    10    11    2
     4    10     4    1
     5     4     5   ar
     6     5     6   ar
     7     6     7   ar
     8     7     2    1
     9     2     3    2
    10     3     1    1
    11     1    14    1
    12    14    15    1
    13    14    16    1
    14    16    17    1
    15    17    18   ar
    16    18    19   ar
    17    19    20   ar
    18    20    21   ar
    19    21    22   ar
    20    21    23    1
    21    23    24    1
    22    24    25    1
    23    25    26    1
    24     7     8   ar
    25     8     9   ar
    26     9     4   ar
    27    22    17   ar
    28    26    20    1
@<TRIPOS>MOLECULE
*****
 26 28 0 0 0
SMALL
GASTEIGER

@<TRIPOS>ATOM
      1 C         139.3722  145.0939  163.3390 C.3     1  UNL1        0.0992
      2 C         139.5736  142.8958  164.7093 C.2     1  UNL1       -0.0032
      3 C         139.5481  144.3946  164.6543 C.2     1  UNL1       -0.0088
      4 C         140.1011  140.7979  168.6553 C.ar    1  UNL1        0.0756
      5 C         139.4805  140.0734  167.4978 C.ar    1  UNL1        0.0064
      6 C         139.3047  140.7727  166.1825 C.ar    1  UNL1        0.0002
      7 C         139.7494  142.1965  166.0247 C.ar    1  UNL1       -0.0003
      8 C         140.3700  142.9211  167.1822 C.ar    1  UNL1        0.0002
      9 C         140.5458  142.2217  168.4975 C.ar    1  UNL1        0.0064
     10 C         140.2769  140.0986  169.9707 C.2     1  UNL1        0.3413
     11 O         139.0748  139.6805  170.7644 O.2     1  UNL1       -0.2449
     12 C         142.6238  139.0274  169.6634 C.3     1  UNL1        0.2560
     13 O         141.6549  139.8175  170.4922 O.3     1  UNL1       -0.4413
     14 N         140.5570  145.3267  162.4491 N.3     1  UNL1       -0.2639
     15 C         140.3615  145.5153  160.9739 C.3     1  UNL1        0.0902
     16 C         141.9374  145.3710  163.0343 C.3     1  UNL1        0.0995
     17 C         142.6282  144.0977  163.4237 C.ar    1  UNL1       -0.0031
     18 C         143.3813  144.0187  164.7185 C.ar    1  UNL1       -0.0030
     19 C         144.0721  142.7455  165.1079 C.ar    1  UNL1       -0.0016
     20 C         144.0099  141.5512  164.2024 C.ar    1  UNL1        0.0119
     21 C         143.2568  141.6302  162.9075 C.ar    1  UNL1        0.1342
     22 C         142.5660  142.9035  162.5182 C.ar    1  UNL1        0.0337
     23 O         143.1945  140.4360  162.0020 O.3     1  UNL1       -0.4758
     24 C         143.8853  139.1628  162.3914 C.3     1  UNL1        0.2057
     25 C         144.6384  139.0838  163.6862 C.3     1  UNL1        0.0521
     26 C         144.7007  140.2780  164.5917 C.3     1  UNL1        0.0333
@<TRIPOS>BOND
     1    12    13    1
     2    13    10    1
     3    10    11    2
     4    10     4    1
     5     4     5   ar
     6     5     6   ar
     7     6     7   ar
     8     7     2    1
     9     2     3    2
    10     3     1    1
    11     1    14    1
    12    14    15    1
    13    14    16    1
    14    16    17    1
    15    17    18   ar
    16    18    19   ar
    17    19    20   ar
    18    20    21   ar
    19    21    22   ar
    20    21    23    1
    21    23    24    1
    22    24    25    1
    23    25    26    1
    24     7     8   ar
    25     8     9   ar
    26     9     4   ar
    27    22    17   ar
    28    26    20    1
@<TRIPOS>MOLECULE
*****
 26 28 0 0 0
SMALL
GASTEIGER

@<TRIPOS>ATOM
      1 C         138.8931  137.9540  161.4837 C.3     1  UNL1        0.0992
      2 C         139.7587  138.1688  163.9239 C.2     1  UNL1       -0.0032
      3 C         138.7480  138.5099  162.8693 C.2     1  UNL1       -0.0088
      4 C         139.3231  139.8365  168.0807 C.ar    1  UNL1        0.0756
      5 C         138.1708  139.1283  167.4322 C.ar    1  UNL1        0.0064
      6 C         138.3160  138.5724  166.0466 C.ar    1  UNL1        0.0002
      7 C         139.6135  138.7247  165.3095 C.ar    1  UNL1       -0.0003
      8 C         140.7658  139.4329  165.9580 C.ar    1  UNL1        0.0002
      9 C         140.6206  139.9888  167.3436 C.ar    1  UNL1        0.0064
     10 C         139.1779  140.3924  169.4663 C.2     1  UNL1        0.3413
     11 O         138.0869  139.8908  170.3652 O.2     1  UNL1       -0.2449
     12 C         141.1979  141.0990  170.9395 C.3     1  UNL1        0.2560
     13 O         140.1239  141.4499  169.9530 O.3     1  UNL1       -0.4413
     14 N         139.3460  138.8422  160.3629 N.3     1  UNL1       -0.2639
     15 C         138.3653  139.7512  159.6833 C.3     1  UNL1        0.0902
     16 C         140.7794  138.8212  159.9217 C.3     1  UNL1        0.0995
     17 C         141.8674  139.1809  160.8897 C.ar    1  UNL1       -0.0031
     18 C         142.6177  138.1001  161.6102 C.ar    1  UNL1       -0.0030
     19 C         143.7056  138.4597  162.5781 C.ar    1  UNL1       -0.0016
     20 C         144.0434  139.9002  162.8256 C.ar    1  UNL1        0.0119
     21 C         143.2932  140.9809  162.1051 C.ar    1  UNL1        0.1342
     22 C         142.2052  140.6212  161.1371 C.ar    1  UNL1        0.0337
     23 O         143.6309  142.4213  162.3526 O.3     1  UNL1       -0.4758
     24 C         144.7189  142.7808  163.3205 C.3     1  UNL1        0.2057
     25 C         145.4691  141.7001  164.0410 C.3     1  UNL1        0.0521
     26 C         145.1314  140.2597  163.7936 C.3     1  UNL1        0.0333
@<TRIPOS>BOND
     1    12    13    1
     2    13    10    1
     3    10    11    2
     4    10     4    1
     5     4     5   ar
     6     5     6   ar
     7     6     7   ar
     8     7     2    1
     9     2     3    2
    10     3     1    1
    11     1    14    1
    12    14    15    1
    13    14    16    1
    14    16    17    1
    15    17    18   ar
    16    18    19   ar
    17    19    20   ar
    18    20    21   ar
    19    21    22   ar
    20    21    23    1
    21    23    24    1
    22    24    25    1
    23    25    26    1
    24     7     8   ar
    25     8     9   ar
    26     9     4   ar
    27    22    17   ar
    28    26    20    1
