@<TRIPOS>MOLECULE
*****
 29 31 0 0 0
SMALL
GASTEIGER

@<TRIPOS>ATOM
      1 C         139.3412  139.7354  163.6500 C.ar    1  UNL1       -0.0207
      2 C         138.3159  139.4169  164.6975 C.ar    1  UNL1       -0.0042
      3 C         138.5483  139.8234  166.1225 C.ar    1  UNL1       -0.0002
      4 C         139.8060  140.5486  166.5000 C.ar    1  UNL1        0.0036
      5 C         140.8312  140.8671  165.4525 C.ar    1  UNL1       -0.0002
      6 C         140.5988  140.4606  164.0275 C.ar    1  UNL1       -0.0042
      7 C         140.0384  140.9551  167.9251 C.ar    1  UNL1        0.0445
      8 C         140.1520  139.9093  168.9943 C.ar    1  UNL1        0.0086
      9 C         140.3844  140.3159  170.4194 C.ar    1  UNL1        0.0609
     10 C         140.5031  141.7683  170.7751 C.ar    1  UNL1        0.2626
     11 O         140.7355  142.1749  172.2001 O.2     1  UNL1       -0.2669
     12 N         140.3895  142.8141  169.7058 N.ar    1  UNL1       -0.2706
     13 C         140.5082  144.2664  170.0615 C.3     1  UNL1        0.1358
     14 C         140.1571  142.4075  168.2808 C.ar    1  UNL1        0.2061
     15 F         140.0435  143.4533  167.2114 F       1  UNL1       -0.1849
     16 C         139.5843  137.9917  161.7394 C.3     1  UNL1        0.0066
     17 C         139.1088  139.3289  162.2249 C.3     1  UNL1        0.0454
     18 C         138.4009  140.2596  161.2854 C.3     1  UNL1        0.1325
     19 N         136.9829  139.9826  160.8821 N.3     1  UNL1       -0.3148
     20 H         136.6607  139.1284  161.3369 H       1  UNL1        0.1192
     21 H         136.9335  139.8682  159.8697 H       1  UNL1        0.1192
     22 C         139.1109  141.4672  160.7492 C.2     1  UNL1        0.2401
     23 O         139.9203  141.3640  159.4905 O.2     1  UNL1       -0.2734
     24 N         139.0116  142.7779  161.4717 N.am    1  UNL1       -0.2756
     25 C         138.2436  143.0326  162.7348 C.3     1  UNL1        0.0964
     26 C         138.4202  144.4762  163.1017 C.3     1  UNL1        0.0585
     27 C         139.2974  145.1139  162.0654 C.3     1  UNL1        0.1824
     28 F         139.7328  146.5491  162.0408 F       1  UNL1       -0.2354
     29 C         139.6629  144.0643  161.0580 C.3     1  UNL1        0.1286
@<TRIPOS>BOND
     1    17    16    1
     2    17     1    1
     3     1     2   ar
     4     2     3   ar
     5     3     4   ar
     6     4     7    1
     7     7     8   ar
     8     8     9   ar
     9     9    10   ar
    10    10    11    2
    11    10    12   ar
    12    12    13    1
    13    12    14   ar
    14    14    15    1
    15     4     5   ar
    16     5     6   ar
    17    17    18    1
    18    18    19    1
    19    18    22    1
    20    22    23    2
    21    22    24   am
    22    24    25    1
    23    25    26    1
    24    26    27    1
    25    27    28    1
    26    27    29    1
    27     6     1   ar
    28    29    24    1
    29    14     7   ar
    30    19    20    1
    31    19    21    1
@<TRIPOS>MOLECULE
*****
 29 31 0 0 0
SMALL
GASTEIGER

@<TRIPOS>ATOM
      1 C         141.9640  139.2431  163.8217 C.ar    1  UNL1       -0.0207
      2 C         142.7789  138.7074  164.9614 C.ar    1  UNL1       -0.0042
      3 C         142.5248  139.1922  166.3580 C.ar    1  UNL1       -0.0002
      4 C         141.4558  140.2126  166.6149 C.ar    1  UNL1        0.0036
      5 C         140.6408  140.7482  165.4752 C.ar    1  UNL1       -0.0002
      6 C         140.8949  140.2635  164.0786 C.ar    1  UNL1       -0.0042
      7 C         141.2017  140.6973  168.0115 C.ar    1  UNL1        0.0445
      8 C         140.0103  140.1977  168.7737 C.ar    1  UNL1        0.0086
      9 C         139.7562  140.6825  170.1703 C.ar    1  UNL1        0.0609
     10 C         140.6936  141.6668  170.8048 C.ar    1  UNL1        0.2626
     11 O         140.4396  142.1515  172.2013 O.2     1  UNL1       -0.2669
     12 N         141.8851  142.1663  170.0425 N.ar    1  UNL1       -0.2706
     13 C         142.8225  143.1506  170.6769 C.3     1  UNL1        0.1358
     14 C         142.1391  141.6816  168.6459 C.ar    1  UNL1        0.2061
     15 F         143.3306  142.1812  167.8837 F       1  UNL1       -0.1849
     16 C         141.4075  137.6276  161.8646 C.3     1  UNL1        0.0066
     17 C         142.2180  138.7584  162.4251 C.3     1  UNL1        0.0454
     18 C         143.2827  139.4045  161.5890 C.3     1  UNL1        0.1325
     19 N         144.5001  138.6240  161.1905 N.3     1  UNL1       -0.3148
     20 H         144.4384  137.6799  161.5715 H       1  UNL1        0.1192
     21 H         145.3338  139.0843  161.5558 H       1  UNL1        0.1192
     22 C         143.1300  140.8311  161.1515 C.2     1  UNL1        0.2401
     23 O         142.5132  141.1456  159.8208 O.2     1  UNL1       -0.2734
     24 N         143.5941  141.9433  162.0446 N.am    1  UNL1       -0.2756
     25 C         144.2263  141.7838  163.3955 C.3     1  UNL1        0.0964
     26 C         144.5304  143.1522  163.9295 C.3     1  UNL1        0.0585
     27 C         144.0861  144.1574  162.9086 C.3     1  UNL1        0.1824
     28 F         144.2004  145.6480  163.0311 F       1  UNL1       -0.2354
     29 C         143.5074  143.4102  161.7437 C.3     1  UNL1        0.1286
@<TRIPOS>BOND
     1    17    16    1
     2    17     1    1
     3     1     2   ar
     4     2     3   ar
     5     3     4   ar
     6     4     7    1
     7     7     8   ar
     8     8     9   ar
     9     9    10   ar
    10    10    11    2
    11    10    12   ar
    12    12    13    1
    13    12    14   ar
    14    14    15    1
    15     4     5   ar
    16     5     6   ar
    17    17    18    1
    18    18    19    1
    19    18    22    1
    20    22    23    2
    21    22    24   am
    22    24    25    1
    23    25    26    1
    24    26    27    1
    25    27    28    1
    26    27    29    1
    27     6     1   ar
    28    29    24    1
    29    14     7   ar
    30    19    20    1
    31    19    21    1
@<TRIPOS>MOLECULE
*****
 29 31 0 0 0
SMALL
GASTEIGER

@<TRIPOS>ATOM
      1 C         142.9788  139.6251  163.8822 C.ar    1  UNL1       -0.0207
      2 C         143.3861  138.7909  165.0603 C.ar    1  UNL1       -0.0042
      3 C         142.9823  139.2013  166.4454 C.ar    1  UNL1       -0.0002
      4 C         142.1711  140.4460  166.6523 C.ar    1  UNL1        0.0036
      5 C         141.7638  141.2802  165.4741 C.ar    1  UNL1       -0.0002
      6 C         142.1676  140.8698  164.0891 C.ar    1  UNL1       -0.0042
      7 C         141.7673  140.8564  168.0374 C.ar    1  UNL1        0.0445
      8 C         140.5912  140.2027  168.7005 C.ar    1  UNL1        0.0086
      9 C         140.1874  140.6131  170.0856 C.ar    1  UNL1        0.0609
     10 C         140.9597  141.6772  170.8077 C.ar    1  UNL1        0.2626
     11 O         140.5559  142.0876  172.1927 O.2     1  UNL1       -0.2669
     12 N         142.1357  142.3309  170.1446 N.ar    1  UNL1       -0.2706
     13 C         142.9080  143.3950  170.8666 C.3     1  UNL1        0.1358
     14 C         142.5395  141.9205  168.7595 C.ar    1  UNL1        0.2061
     15 F         143.7156  142.5741  168.0964 F       1  UNL1       -0.1849
     16 C         144.4741  139.9559  161.7834 C.3     1  UNL1        0.0066
     17 C         143.3826  139.2147  162.4970 C.3     1  UNL1        0.0454
     18 C         142.6950  138.0631  161.8256 C.3     1  UNL1        0.1325
     19 N         143.4681  137.1551  160.9157 N.3     1  UNL1       -0.3148
     20 H         144.4385  137.4658  160.8697 H       1  UNL1        0.1192
     21 H         143.0584  137.1803  159.9819 H       1  UNL1        0.1192
     22 C         141.2343  137.8194  162.0640 C.2     1  UNL1        0.2401
     23 O         140.7990  136.8086  163.0833 O.2     1  UNL1       -0.2734
     24 N         140.2087  138.5866  161.2832 N.am    1  UNL1       -0.2756
     25 C         140.4914  139.6235  160.2368 C.3     1  UNL1        0.0964
     26 C         139.1777  140.1293  159.7186 C.3     1  UNL1        0.0585
     27 C         138.0831  139.4050  160.4447 C.3     1  UNL1        0.1824
     28 F         136.6100  139.5999  160.2399 F       1  UNL1       -0.2354
     29 C         138.7203  138.4516  161.4117 C.3     1  UNL1        0.1286
@<TRIPOS>BOND
     1    17    16    1
     2    17     1    1
     3     1     2   ar
     4     2     3   ar
     5     3     4   ar
     6     4     7    1
     7     7     8   ar
     8     8     9   ar
     9     9    10   ar
    10    10    11    2
    11    10    12   ar
    12    12    13    1
    13    12    14   ar
    14    14    15    1
    15     4     5   ar
    16     5     6   ar
    17    17    18    1
    18    18    19    1
    19    18    22    1
    20    22    23    2
    21    22    24   am
    22    24    25    1
    23    25    26    1
    24    26    27    1
    25    27    28    1
    26    27    29    1
    27     6     1   ar
    28    29    24    1
    29    14     7   ar
    30    19    20    1
    31    19    21    1
@<TRIPOS>MOLECULE
*****
 29 31 0 0 0
SMALL
GASTEIGER

@<TRIPOS>ATOM
      1 C         143.5447  141.0609  163.6708 C.ar    1  UNL1       -0.0207
      2 C         143.6560  139.9357  164.6564 C.ar    1  UNL1       -0.0042
      3 C         143.1610  140.1170  166.0607 C.ar    1  UNL1       -0.0002
      4 C         142.5547  141.4236  166.4793 C.ar    1  UNL1        0.0036
      5 C         142.4433  142.5488  165.4937 C.ar    1  UNL1       -0.0002
      6 C         142.9383  142.3675  164.0895 C.ar    1  UNL1       -0.0042
      7 C         142.0596  141.6049  167.8837 C.ar    1  UNL1        0.0445
      8 C         142.8746  142.3864  168.8712 C.ar    1  UNL1        0.0086
      9 C         142.3795  142.5677  170.2755 C.ar    1  UNL1        0.0609
     10 C         141.0696  141.9674  170.6923 C.ar    1  UNL1        0.2626
     11 O         140.5745  142.1487  172.0966 O.2     1  UNL1       -0.2669
     12 N         140.2546  141.1859  169.7048 N.ar    1  UNL1       -0.2706
     13 C         138.9446  140.5857  170.1216 C.3     1  UNL1        0.1358
     14 C         140.7497  141.0047  168.3005 C.ar    1  UNL1        0.2061
     15 F         139.9347  140.2232  167.3129 F       1  UNL1       -0.1849
     16 C         144.9665  141.8920  161.6613 C.3     1  UNL1        0.0066
     17 C         144.0397  140.8796  162.2664 C.3     1  UNL1        0.0454
     18 C         143.6079  139.6859  161.4673 C.3     1  UNL1        0.1325
     19 N         144.5211  138.5035  161.3322 N.3     1  UNL1       -0.3148
     20 H         145.3857  138.6816  161.8433 H       1  UNL1        0.1192
     21 H         144.7343  138.3494  160.3467 H       1  UNL1        0.1192
     22 C         142.2631  139.6746  160.8031 C.2     1  UNL1        0.2401
     23 O         142.0658  140.3844  159.4965 O.2     1  UNL1       -0.2734
     24 N         141.1154  138.9534  161.4456 N.am    1  UNL1       -0.2756
     25 C         141.1611  138.2033  162.7437 C.3     1  UNL1        0.0964
     26 C         139.7944  137.6420  163.0032 C.3     1  UNL1        0.0585
     27 C         138.9041  138.0453  161.8654 C.3     1  UNL1        0.1824
     28 F         137.4523  137.6989  161.7163 F       1  UNL1       -0.2354
     29 C         139.7205  138.8558  160.9027 C.3     1  UNL1        0.1286
@<TRIPOS>BOND
     1    17    16    1
     2    17     1    1
     3     1     2   ar
     4     2     3   ar
     5     3     4   ar
     6     4     7    1
     7     7     8   ar
     8     8     9   ar
     9     9    10   ar
    10    10    11    2
    11    10    12   ar
    12    12    13    1
    13    12    14   ar
    14    14    15    1
    15     4     5   ar
    16     5     6   ar
    17    17    18    1
    18    18    19    1
    19    18    22    1
    20    22    23    2
    21    22    24   am
    22    24    25    1
    23    25    26    1
    24    26    27    1
    25    27    28    1
    26    27    29    1
    27     6     1   ar
    28    29    24    1
    29    14     7   ar
    30    19    20    1
    31    19    21    1
@<TRIPOS>MOLECULE
*****
 29 31 0 0 0
SMALL
GASTEIGER

@<TRIPOS>ATOM
      1 C         143.0217  139.7677  163.9084 C.ar    1  UNL1       -0.0207
      2 C         142.2975  141.0656  164.1102 C.ar    1  UNL1       -0.0042
      3 C         141.8567  141.4726  165.4850 C.ar    1  UNL1       -0.0002
      4 C         142.1402  140.5816  166.6579 C.ar    1  UNL1        0.0036
      5 C         142.8644  139.2837  166.4561 C.ar    1  UNL1       -0.0002
      6 C         143.3052  138.8767  165.0813 C.ar    1  UNL1       -0.0042
      7 C         141.6994  140.9887  168.0328 C.ar    1  UNL1        0.0445
      8 C         142.5921  141.8412  168.8849 C.ar    1  UNL1        0.0086
      9 C         142.1513  142.2482  170.2597 C.ar    1  UNL1        0.0609
     10 C         140.8177  141.8027  170.7823 C.ar    1  UNL1        0.2626
     11 O         140.3768  142.2096  172.1571 O.2     1  UNL1       -0.2669
     12 N         139.9249  140.9501  169.9301 N.ar    1  UNL1       -0.2706
     13 C         138.5914  140.5046  170.4527 C.3     1  UNL1        0.1358
     14 C         140.3658  140.5431  168.5553 C.ar    1  UNL1        0.2061
     15 F         139.4730  139.6906  167.7031 F       1  UNL1       -0.1849
     16 C         144.5176  140.1522  161.8192 C.3     1  UNL1        0.0066
     17 C         143.4626  139.3607  162.5336 C.3     1  UNL1        0.0454
     18 C         142.8483  138.1621  161.8732 C.3     1  UNL1        0.1325
     19 N         143.6919  137.2604  161.0214 N.3     1  UNL1       -0.3148
     20 H         144.6501  137.6096  161.0020 H       1  UNL1        0.1192
     21 H         143.3178  137.2410  160.0727 H       1  UNL1        0.1192
     22 C         141.3905  137.8652  162.0645 C.2     1  UNL1        0.2401
     23 O         140.9630  136.7919  163.0213 O.2     1  UNL1       -0.2734
     24 N         140.3602  138.6414  161.2990 N.am    1  UNL1       -0.2756
     25 C         140.6352  139.7377  160.3128 C.3     1  UNL1        0.0964
     26 C         139.3190  140.2315  159.7897 C.3     1  UNL1        0.0585
     27 C         138.2305  139.4405  160.4526 C.3     1  UNL1        0.1824
     28 F         136.7572  139.6035  160.2230 F       1  UNL1       -0.2354
     29 C         138.8740  138.4577  161.3854 C.3     1  UNL1        0.1286
@<TRIPOS>BOND
     1    17    16    1
     2    17     1    1
     3     1     2   ar
     4     2     3   ar
     5     3     4   ar
     6     4     7    1
     7     7     8   ar
     8     8     9   ar
     9     9    10   ar
    10    10    11    2
    11    10    12   ar
    12    12    13    1
    13    12    14   ar
    14    14    15    1
    15     4     5   ar
    16     5     6   ar
    17    17    18    1
    18    18    19    1
    19    18    22    1
    20    22    23    2
    21    22    24   am
    22    24    25    1
    23    25    26    1
    24    26    27    1
    25    27    28    1
    26    27    29    1
    27     6     1   ar
    28    29    24    1
    29    14     7   ar
    30    19    20    1
    31    19    21    1
@<TRIPOS>MOLECULE
*****
 29 31 0 0 0
SMALL
GASTEIGER

@<TRIPOS>ATOM
      1 C         139.7905  139.4777  163.5653 C.ar    1  UNL1       -0.0207
      2 C         140.6399  138.6691  164.5005 C.ar    1  UNL1       -0.0042
      3 C         140.7842  139.0872  165.9337 C.ar    1  UNL1       -0.0002
      4 C         140.0791  140.3139  166.4318 C.ar    1  UNL1        0.0036
      5 C         139.2297  141.1225  165.4966 C.ar    1  UNL1       -0.0002
      6 C         139.0854  140.7044  164.0633 C.ar    1  UNL1       -0.0042
      7 C         140.2234  140.7319  167.8652 C.ar    1  UNL1        0.0445
      8 C         139.2884  140.1863  168.9034 C.ar    1  UNL1        0.0086
      9 C         139.4327  140.6044  170.3367 C.ar    1  UNL1        0.0609
     10 C         140.5121  141.5681  170.7318 C.ar    1  UNL1        0.2626
     11 O         140.6565  141.9861  172.1651 O.2     1  UNL1       -0.2669
     12 N         141.4472  142.1137  169.6935 N.ar    1  UNL1       -0.2706
     13 C         142.5267  143.0774  170.0886 C.3     1  UNL1        0.1358
     14 C         141.3029  141.6956  168.2603 C.ar    1  UNL1        0.2061
     15 F         142.2380  142.2413  167.2220 F       1  UNL1       -0.1849
     16 C         138.5503  138.1165  161.7324 C.3     1  UNL1        0.0066
     17 C         139.6461  139.0596  162.1319 C.3     1  UNL1        0.0454
     18 C         140.5977  139.5848  161.0980 C.3     1  UNL1        0.1325
     19 N         140.0763  140.3557  159.9216 N.3     1  UNL1       -0.3148
     20 H         139.0607  140.4271  159.9849 H       1  UNL1        0.1192
     21 H         140.3302  139.8734  159.0595 H       1  UNL1        0.1192
     22 C         142.0705  139.3390  161.2405 C.2     1  UNL1        0.2401
     23 O         142.6737  138.0708  160.7134 O.2     1  UNL1       -0.2734
     24 N         142.9401  140.3614  161.9102 N.am    1  UNL1       -0.2756
     25 C         142.4816  141.6695  162.4834 C.3     1  UNL1        0.0964
     26 C         143.6791  142.3718  163.0517 C.3     1  UNL1        0.0585
     27 C         144.8777  141.4977  162.8296 C.3     1  UNL1        0.1824
     28 F         146.2858  141.8110  163.2408 F       1  UNL1       -0.2354
     29 C         144.4210  140.2552  162.1241 C.3     1  UNL1        0.1286
@<TRIPOS>BOND
     1    17    16    1
     2    17     1    1
     3     1     2   ar
     4     2     3   ar
     5     3     4   ar
     6     4     7    1
     7     7     8   ar
     8     8     9   ar
     9     9    10   ar
    10    10    11    2
    11    10    12   ar
    12    12    13    1
    13    12    14   ar
    14    14    15    1
    15     4     5   ar
    16     5     6   ar
    17    17    18    1
    18    18    19    1
    19    18    22    1
    20    22    23    2
    21    22    24   am
    22    24    25    1
    23    25    26    1
    24    26    27    1
    25    27    28    1
    26    27    29    1
    27     6     1   ar
    28    29    24    1
    29    14     7   ar
    30    19    20    1
    31    19    21    1
@<TRIPOS>MOLECULE
*****
 29 31 0 0 0
SMALL
GASTEIGER

@<TRIPOS>ATOM
      1 C         140.7795  143.0714  163.2860 C.ar    1  UNL1       -0.0207
      2 C         139.4726  143.1630  164.0164 C.ar    1  UNL1       -0.0042
      3 C         139.4273  142.9561  165.5014 C.ar    1  UNL1       -0.0002
      4 C         140.6889  142.6577  166.2559 C.ar    1  UNL1        0.0036
      5 C         141.9958  142.5662  165.5255 C.ar    1  UNL1       -0.0002
      6 C         142.0411  142.7730  164.0406 C.ar    1  UNL1       -0.0042
      7 C         140.6436  142.4509  167.7409 C.ar    1  UNL1        0.0445
      8 C         140.2959  143.5944  168.6472 C.ar    1  UNL1        0.0086
      9 C         140.2505  143.3875  170.1322 C.ar    1  UNL1        0.0609
     10 C         140.5529  142.0371  170.7109 C.ar    1  UNL1        0.2626
     11 O         140.5075  141.8302  172.1958 O.2     1  UNL1       -0.2669
     12 N         140.9006  140.8935  169.8046 N.ar    1  UNL1       -0.2706
     13 C         141.2030  139.5431  170.3832 C.3     1  UNL1        0.1358
     14 C         140.9460  141.1004  168.3196 C.ar    1  UNL1        0.2061
     15 F         141.2937  139.9568  167.4133 F       1  UNL1       -0.1849
     16 C         140.3056  142.2149  160.8794 C.3     1  UNL1        0.0066
     17 C         140.8249  143.2783  161.8010 C.3     1  UNL1        0.0454
     18 C         141.3896  144.5486  161.2376 C.3     1  UNL1        0.1325
     19 N         142.7457  145.0228  161.6692 N.3     1  UNL1       -0.3148
     20 H         143.1370  144.3654  162.3439 H       1  UNL1        0.1192
     21 H         142.6627  145.9434  162.1005 H       1  UNL1        0.1192
     22 C         140.5983  145.3448  160.2427 C.2     1  UNL1        0.2401
     23 O         139.4289  146.1660  160.6992 O.2     1  UNL1       -0.2734
     24 N         140.9762  145.3197  158.7913 N.am    1  UNL1       -0.2756
     25 C         142.1142  144.5496  158.1897 C.3     1  UNL1        0.0964
     26 C         142.1238  144.8143  156.7133 C.3     1  UNL1        0.0585
     27 C         140.9918  145.7481  156.4024 C.3     1  UNL1        0.1824
     28 F         140.6322  146.2767  155.0455 F       1  UNL1       -0.2354
     29 C         140.2826  146.0605  157.6867 C.3     1  UNL1        0.1286
@<TRIPOS>BOND
     1    17    16    1
     2    17     1    1
     3     1     2   ar
     4     2     3   ar
     5     3     4   ar
     6     4     7    1
     7     7     8   ar
     8     8     9   ar
     9     9    10   ar
    10    10    11    2
    11    10    12   ar
    12    12    13    1
    13    12    14   ar
    14    14    15    1
    15     4     5   ar
    16     5     6   ar
    17    17    18    1
    18    18    19    1
    19    18    22    1
    20    22    23    2
    21    22    24   am
    22    24    25    1
    23    25    26    1
    24    26    27    1
    25    27    28    1
    26    27    29    1
    27     6     1   ar
    28    29    24    1
    29    14     7   ar
    30    19    20    1
    31    19    21    1
@<TRIPOS>MOLECULE
*****
 29 31 0 0 0
SMALL
GASTEIGER

@<TRIPOS>ATOM
      1 C         141.9243  139.0408  163.8207 C.ar    1  UNL1       -0.0207
      2 C         142.9459  138.8108  164.8946 C.ar    1  UNL1       -0.0042
      3 C         142.7045  139.3266  166.2823 C.ar    1  UNL1       -0.0002
      4 C         141.4413  140.0723  166.5960 C.ar    1  UNL1        0.0036
      5 C         140.4197  140.3022  165.5221 C.ar    1  UNL1       -0.0002
      6 C         140.6612  139.7864  164.1345 C.ar    1  UNL1       -0.0042
      7 C         141.1999  140.5881  167.9837 C.ar    1  UNL1        0.0445
      8 C         140.0300  140.0866  168.7773 C.ar    1  UNL1        0.0086
      9 C         139.7886  140.6023  170.1650 C.ar    1  UNL1        0.0609
     10 C         140.7170  141.6197  170.7591 C.ar    1  UNL1        0.2626
     11 O         140.4756  142.1355  172.1468 O.2     1  UNL1       -0.2669
     12 N         141.8870  142.1212  169.9655 N.ar    1  UNL1       -0.2706
     13 C         142.8155  143.1386  170.5596 C.3     1  UNL1        0.1358
     14 C         142.1284  141.6054  168.5778 C.ar    1  UNL1        0.2061
     15 F         143.2983  142.1070  167.7842 F       1  UNL1       -0.1849
     16 C         141.0492  137.8776  161.6686 C.3     1  UNL1        0.0066
     17 C         142.1657  138.5250  162.4330 C.3     1  UNL1        0.0454
     18 C         143.5237  138.6566  161.8097 C.3     1  UNL1        0.1325
     19 N         144.3535  137.4333  161.5541 N.3     1  UNL1       -0.3148
     20 H         143.8433  136.6058  161.8631 H       1  UNL1        0.1192
     21 H         145.2309  137.5039  162.0695 H       1  UNL1        0.1192
     22 C         144.0520  140.0114  161.4418 C.2     1  UNL1        0.2401
     23 O         144.8581  140.7967  162.4336 O.2     1  UNL1       -0.2734
     24 N         143.7743  140.5810  160.0823 N.am    1  UNL1       -0.2756
     25 C         142.9878  139.9162  158.9917 C.3     1  UNL1        0.0964
     26 C         142.9617  140.8397  157.8099 C.3     1  UNL1        0.0585
     27 C         143.7321  142.0753  158.1702 C.3     1  UNL1        0.1824
     28 F         143.9602  143.2624  157.2820 F       1  UNL1       -0.2354
     29 C         144.2343  141.9154  159.5746 C.3     1  UNL1        0.1286
@<TRIPOS>BOND
     1    17    16    1
     2    17     1    1
     3     1     2   ar
     4     2     3   ar
     5     3     4   ar
     6     4     7    1
     7     7     8   ar
     8     8     9   ar
     9     9    10   ar
    10    10    11    2
    11    10    12   ar
    12    12    13    1
    13    12    14   ar
    14    14    15    1
    15     4     5   ar
    16     5     6   ar
    17    17    18    1
    18    18    19    1
    19    18    22    1
    20    22    23    2
    21    22    24   am
    22    24    25    1
    23    25    26    1
    24    26    27    1
    25    27    28    1
    26    27    29    1
    27     6     1   ar
    28    29    24    1
    29    14     7   ar
    30    19    20    1
    31    19    21    1
@<TRIPOS>MOLECULE
*****
 29 31 0 0 0
SMALL
GASTEIGER

@<TRIPOS>ATOM
      1 C         139.3437  139.5482  164.0846 C.ar    1  UNL1       -0.0207
      2 C         140.6144  140.3322  164.2279 C.ar    1  UNL1       -0.0042
      3 C         141.0580  140.8005  165.5821 C.ar    1  UNL1       -0.0002
      4 C         140.2309  140.4848  166.7929 C.ar    1  UNL1        0.0036
      5 C         138.9602  139.7008  166.6496 C.ar    1  UNL1       -0.0002
      6 C         138.5166  139.2325  165.2954 C.ar    1  UNL1       -0.0042
      7 C         140.6746  140.9531  168.1472 C.ar    1  UNL1        0.0445
      8 C         140.0486  142.1694  168.7624 C.ar    1  UNL1        0.0086
      9 C         140.4923  142.6378  170.1166 C.ar    1  UNL1        0.0609
     10 C         141.5620  141.8897  170.8556 C.ar    1  UNL1        0.2626
     11 O         142.0057  142.3579  172.2098 O.2     1  UNL1       -0.2669
     12 N         142.1880  140.6732  170.2403 N.ar    1  UNL1       -0.2706
     13 C         143.2577  139.9252  170.9793 C.3     1  UNL1        0.1358
     14 C         141.7443  140.2050  168.8861 C.ar    1  UNL1        0.2061
     15 F         142.3704  138.9886  168.2709 F       1  UNL1       -0.1849
     16 C         139.3766  137.7603  162.1998 C.3     1  UNL1        0.0066
     17 C         138.9000  139.0799  162.7303 C.3     1  UNL1        0.0454
     18 C         137.9797  139.9312  161.9067 C.3     1  UNL1        0.1325
     19 N         137.0952  139.2975  160.8741 N.3     1  UNL1       -0.3148
     20 H         137.2486  138.2891  160.8676 H       1  UNL1        0.1192
     21 H         137.3165  139.6810  159.9553 H       1  UNL1        0.1192
     22 C         137.9439  141.4161  162.1156 C.2     1  UNL1        0.2401
     23 O         136.8428  142.0331  162.9262 O.2     1  UNL1       -0.2734
     24 N         139.0091  142.2841  161.5140 N.am    1  UNL1       -0.2756
     25 C         140.1663  141.8125  160.6842 C.3     1  UNL1        0.0964
     26 C         140.9766  143.0129  160.2939 C.3     1  UNL1        0.0585
     27 C         140.3202  144.2265  160.8825 C.3     1  UNL1        0.1824
     28 F         140.7961  145.6420  160.7418 F       1  UNL1       -0.2354
     29 C         139.1043  143.7760  161.6366 C.3     1  UNL1        0.1286
@<TRIPOS>BOND
     1    17    16    1
     2    17     1    1
     3     1     2   ar
     4     2     3   ar
     5     3     4   ar
     6     4     7    1
     7     7     8   ar
     8     8     9   ar
     9     9    10   ar
    10    10    11    2
    11    10    12   ar
    12    12    13    1
    13    12    14   ar
    14    14    15    1
    15     4     5   ar
    16     5     6   ar
    17    17    18    1
    18    18    19    1
    19    18    22    1
    20    22    23    2
    21    22    24   am
    22    24    25    1
    23    25    26    1
    24    26    27    1
    25    27    28    1
    26    27    29    1
    27     6     1   ar
    28    29    24    1
    29    14     7   ar
    30    19    20    1
    31    19    21    1
