@<TRIPOS>MOLECULE
*****
 40 44 0 0 0
SMALL
GASTEIGER

@<TRIPOS>ATOM
      1 C         143.5267  139.8322  157.0942 C.3     1  UNL1        0.1534
      2 C         142.8216  140.3458  158.3145 C.3     1  UNL1        0.0469
      3 C         141.9758  139.2350  158.8631 C.3     1  UNL1        0.0798
      4 C         142.1583  138.0349  157.9820 C.3     1  UNL1        0.1101
      5 N         143.1167  138.4040  156.8888 N.am    1  UNL1       -0.2680
      6 C         143.5833  137.5030  155.7840 C.2     1  UNL1        0.2495
      7 O         144.5490  138.0144  154.7564 O.2     1  UNL1       -0.2699
      8 N         141.1012  139.3111  160.0795 N.3     1  UNL1       -0.2670
      9 C         141.1425  138.2150  161.1026 C.3     1  UNL1        0.0773
     10 C         140.2679  138.2911  162.3188 C.3     1  UNL1        0.0497
     11 C         139.3521  139.4632  162.5119 C.ar    1  UNL1        0.0473
     12 C         139.3108  140.5593  161.4888 C.ar    1  UNL1        0.0774
     13 N         138.3950  141.7315  161.6819 N.ar    1  UNL1       -0.2271
     14 C         137.5205  141.8076  162.8982 C.ar    1  UNL1        0.2012
     15 N         137.5617  140.7115  163.9214 N.ar    1  UNL1       -0.1896
     16 C         138.4775  139.5393  163.7283 C.ar    1  UNL1        0.2233
     17 C         140.1854  140.4833  160.2726 C.3     1  UNL1        0.1185
     18 O         138.5187  138.4432  164.7514 O.3     1  UNL1       -0.4604
     19 C         138.5788  138.7819  166.2115 C.3     1  UNL1        0.2071
     20 C         139.6553  139.6903  166.7269 C.3     1  UNL1        0.0474
     21 C         139.5721  140.2358  168.1217 C.3     1  UNL1        0.0037
     22 C         138.9525  140.2207  169.4876 C.3     1  UNL1        0.0001
     23 C         140.0475  141.1959  169.1716 C.3     1  UNL1        0.0001
     24 C         143.0842  136.0906  155.7067 C.ar    1  UNL1        0.0566
     25 C         142.0855  135.7045  154.6563 C.ar    1  UNL1        0.0044
     26 C         141.5864  134.2921  154.5790 C.ar    1  UNL1        0.0002
     27 C         142.0861  133.2658  155.5522 C.ar    1  UNL1        0.0274
     28 C         143.0848  133.6519  156.6026 C.ar    1  UNL1        0.1361
     29 C         143.5839  135.0643  156.6799 C.ar    1  UNL1        0.0411
     30 C         141.5869  131.8533  155.4749 C.3     1  UNL1        0.0952
     31 N         142.5430  130.7349  155.1834 N.3     1  UNL1       -0.3174
     32 H         142.9091  130.8386  154.2370 H       1  UNL1        0.1192
     33 H         142.0565  129.8420  155.2638 H       1  UNL1        0.1192
     34 O         143.5844  132.6256  157.5757 O.3     1  UNL1       -0.4717
     35 C         145.0570  132.3731  157.7094 C.3     1  UNL1        0.2525
     36 C         146.8822  141.0383  155.3520 C.3     1  UNL1        0.1107
     37 N         145.9337  140.2604  156.2152 N.am    1  UNL1       -0.3013
     38 C         144.4752  140.6102  156.2311 C.2     1  UNL1        0.2407
     39 O         143.9651  141.7380  155.3838 O.2     1  UNL1       -0.2733
     40 H         146.2685  139.5202  156.7713 H       1  UNL1        0.1495
@<TRIPOS>BOND
     1    36    37    1
     2    37    38   am
     3    38    39    2
     4     1    38    1
     5     1     2    1
     6     2     3    1
     7     3     8    1
     8     8     9    1
     9     9    10    1
    10    10    11    1
    11    11    12   ar
    12    12    13   ar
    13    13    14   ar
    14    14    15   ar
    15    15    16   ar
    16    16    18    1
    17    18    19    1
    18    19    20    1
    19    20    21    1
    20    21    22    1
    21    22    23    1
    22    12    17    1
    23     3     4    1
    24     4     5    1
    25     5     6   am
    26     6     7    2
    27     6    24    1
    28    24    25   ar
    29    25    26   ar
    30    26    27   ar
    31    27    30    1
    32    30    31    1
    33    27    28   ar
    34    28    34    1
    35    34    35    1
    36    28    29   ar
    37     5     1    1
    38    29    24   ar
    39    17     8    1
    40    16    11   ar
    41    23    21    1
    42    37    40    1
    43    31    32    1
    44    31    33    1
@<TRIPOS>MOLECULE
*****
 40 44 0 0 0
SMALL
GASTEIGER

@<TRIPOS>ATOM
      1 C         144.3429  140.8335  156.8669 C.3     1  UNL1        0.1534
      2 C         143.6743  141.2626  158.1392 C.3     1  UNL1        0.0469
      3 C         142.7180  140.1815  158.5477 C.3     1  UNL1        0.0798
      4 C         142.7956  139.0843  157.5279 C.3     1  UNL1        0.1101
      5 N         143.7998  139.4872  156.4891 N.am    1  UNL1       -0.2680
      6 C         144.1921  138.6848  155.2840 C.2     1  UNL1        0.2495
      7 O         145.2164  139.2197  154.3276 O.2     1  UNL1       -0.2699
      8 N         141.8385  140.1954  159.7628 N.3     1  UNL1       -0.2670
      9 C         141.4847  141.4975  160.4178 C.3     1  UNL1        0.0773
     10 C         140.6053  141.5113  161.6329 C.3     1  UNL1        0.0497
     11 C         140.0797  140.2229  162.1929 C.ar    1  UNL1        0.0473
     12 C         140.4335  138.9207  161.5379 C.ar    1  UNL1        0.0774
     13 N         139.9078  137.6322  162.0980 N.ar    1  UNL1       -0.2271
     14 C         139.0284  137.6460  163.3130 C.ar    1  UNL1        0.2012
     15 N         138.6746  138.9483  163.9681 N.ar    1  UNL1       -0.1896
     16 C         139.2002  140.2367  163.4080 C.ar    1  UNL1        0.2233
     17 C         141.3129  138.9069  160.3229 C.3     1  UNL1        0.1185
     18 O         138.8464  141.5389  164.0630 O.3     1  UNL1       -0.4604
     19 C         139.4978  141.9291  165.3567 C.3     1  UNL1        0.2071
     20 C         140.0313  143.3192  165.5384 C.3     1  UNL1        0.0474
     21 C         140.1974  144.2199  164.3506 C.3     1  UNL1        0.0037
     22 C         139.5986  145.1010  163.2946 C.3     1  UNL1        0.0001
     23 C         141.0840  144.8991  163.3492 C.3     1  UNL1        0.0001
     24 C         143.5601  137.3474  155.0353 C.ar    1  UNL1        0.0566
     25 C         142.3883  137.2328  154.1059 C.ar    1  UNL1        0.0044
     26 C         141.7563  135.8954  153.8571 C.ar    1  UNL1        0.0002
     27 C         142.2961  134.6726  154.5378 C.ar    1  UNL1        0.0274
     28 C         143.4678  134.7871  155.4672 C.ar    1  UNL1        0.1361
     29 C         144.0999  136.1245  155.7159 C.ar    1  UNL1        0.0411
     30 C         141.6640  133.3351  154.2890 C.3     1  UNL1        0.0952
     31 N         141.2907  132.4553  155.4451 N.3     1  UNL1       -0.3174
     32 H         142.1358  132.1568  155.9319 H       1  UNL1        0.1192
     33 H         140.7892  131.6364  155.1011 H       1  UNL1        0.1192
     34 O         144.0076  133.5643  156.1478 O.3     1  UNL1       -0.4717
     35 C         144.0750  133.5076  157.6452 C.3     1  UNL1        0.2525
     36 C         147.8323  141.9348  155.3303 C.3     1  UNL1        0.1107
     37 N         146.8016  141.1546  156.0912 N.am    1  UNL1       -0.3013
     38 C         145.3736  141.6136  156.1059 C.2     1  UNL1        0.2407
     39 O         144.9763  142.8527  155.3598 O.2     1  UNL1       -0.2733
     40 H         147.0624  140.3414  156.5809 H       1  UNL1        0.1495
@<TRIPOS>BOND
     1    36    37    1
     2    37    38   am
     3    38    39    2
     4     1    38    1
     5     1     2    1
     6     2     3    1
     7     3     8    1
     8     8     9    1
     9     9    10    1
    10    10    11    1
    11    11    12   ar
    12    12    13   ar
    13    13    14   ar
    14    14    15   ar
    15    15    16   ar
    16    16    18    1
    17    18    19    1
    18    19    20    1
    19    20    21    1
    20    21    22    1
    21    22    23    1
    22    12    17    1
    23     3     4    1
    24     4     5    1
    25     5     6   am
    26     6     7    2
    27     6    24    1
    28    24    25   ar
    29    25    26   ar
    30    26    27   ar
    31    27    30    1
    32    30    31    1
    33    27    28   ar
    34    28    34    1
    35    34    35    1
    36    28    29   ar
    37     5     1    1
    38    29    24   ar
    39    17     8    1
    40    16    11   ar
    41    23    21    1
    42    37    40    1
    43    31    32    1
    44    31    33    1
@<TRIPOS>MOLECULE
*****
 40 44 0 0 0
SMALL
GASTEIGER

@<TRIPOS>ATOM
      1 C         143.4535  138.6675  156.9357 C.3     1  UNL1        0.1534
      2 C         143.4281  137.4170  156.1077 C.3     1  UNL1        0.0469
      3 C         142.8537  136.3158  156.9488 C.3     1  UNL1        0.0798
      4 C         142.5242  136.8857  158.2966 C.3     1  UNL1        0.1101
      5 N         142.8949  138.3391  158.2886 N.am    1  UNL1       -0.2680
      6 C         142.7350  139.2962  159.4325 C.2     1  UNL1        0.2495
      7 O         143.1525  140.7284  159.2760 O.2     1  UNL1       -0.2699
      8 N         142.6454  134.8942  156.5177 N.3     1  UNL1       -0.2670
      9 C         141.7345  134.5853  155.3667 C.3     1  UNL1        0.0773
     10 C         141.5263  133.1637  154.9357 C.3     1  UNL1        0.0497
     11 C         142.2289  132.0511  155.6557 C.ar    1  UNL1        0.0473
     12 C         143.1397  132.3600  156.8067 C.ar    1  UNL1        0.0774
     13 N         143.8423  131.2473  157.5267 N.ar    1  UNL1       -0.2271
     14 C         143.6340  129.8258  157.0957 C.ar    1  UNL1        0.2012
     15 N         142.7232  129.5169  155.9446 N.ar    1  UNL1       -0.1896
     16 C         142.0206  130.6295  155.2246 C.ar    1  UNL1        0.2233
     17 C         143.3480  133.7815  157.2377 C.3     1  UNL1        0.1185
     18 O         141.1097  130.3206  154.0736 O.3     1  UNL1       -0.4604
     19 C         139.7674  129.7001  154.3249 C.3     1  UNL1        0.2071
     20 C         139.6189  128.2075  154.3232 C.3     1  UNL1        0.0474
     21 C         139.3597  127.4782  155.6081 C.3     1  UNL1        0.0037
     22 C         138.3986  126.8623  156.5811 C.3     1  UNL1        0.0001
     23 C         139.8720  126.8308  156.8605 C.3     1  UNL1        0.0001
     24 C         142.1577  138.8210  160.7328 C.ar    1  UNL1        0.0566
     25 C         143.0647  138.5034  161.8846 C.ar    1  UNL1        0.0044
     26 C         142.4873  138.0283  163.1849 C.ar    1  UNL1        0.0002
     27 C         141.0030  137.8708  163.3335 C.ar    1  UNL1        0.0274
     28 C         140.0960  138.1883  162.1817 C.ar    1  UNL1        0.1361
     29 C         140.6734  138.6635  160.8814 C.ar    1  UNL1        0.0411
     30 C         140.4257  137.3956  164.6339 C.3     1  UNL1        0.0952
     31 N         139.2528  138.1086  165.2388 N.3     1  UNL1       -0.3174
     32 H         139.5311  139.0516  165.5101 H       1  UNL1        0.1192
     33 H         138.9325  137.5985  166.0621 H       1  UNL1        0.1192
     34 O         138.6118  138.0308  162.3303 O.3     1  UNL1       -0.4717
     35 C         137.6824  138.8380  161.4732 C.3     1  UNL1        0.2525
     36 C         145.7875  141.8476  156.5008 C.3     1  UNL1        0.1107
     37 N         145.2907  140.5046  156.9472 N.am    1  UNL1       -0.3013
     38 C         143.9504  140.0105  156.4893 C.2     1  UNL1        0.2407
     39 O         143.1070  140.8596  155.5849 O.2     1  UNL1       -0.2733
     40 H         145.8442  139.9473  157.5408 H       1  UNL1        0.1495
@<TRIPOS>BOND
     1    36    37    1
     2    37    38   am
     3    38    39    2
     4     1    38    1
     5     1     2    1
     6     2     3    1
     7     3     8    1
     8     8     9    1
     9     9    10    1
    10    10    11    1
    11    11    12   ar
    12    12    13   ar
    13    13    14   ar
    14    14    15   ar
    15    15    16   ar
    16    16    18    1
    17    18    19    1
    18    19    20    1
    19    20    21    1
    20    21    22    1
    21    22    23    1
    22    12    17    1
    23     3     4    1
    24     4     5    1
    25     5     6   am
    26     6     7    2
    27     6    24    1
    28    24    25   ar
    29    25    26   ar
    30    26    27   ar
    31    27    30    1
    32    30    31    1
    33    27    28   ar
    34    28    34    1
    35    34    35    1
    36    28    29   ar
    37     5     1    1
    38    29    24   ar
    39    17     8    1
    40    16    11   ar
    41    23    21    1
    42    37    40    1
    43    31    32    1
    44    31    33    1
@<TRIPOS>MOLECULE
*****
 40 44 0 0 0
SMALL
GASTEIGER

@<TRIPOS>ATOM
      1 C         143.8957  139.8702  157.3355 C.3     1  UNL1        0.1534
      2 C         143.5947  140.1703  158.7740 C.3     1  UNL1        0.0469
      3 C         142.8697  138.9911  159.3517 C.3     1  UNL1        0.0798
      4 C         142.7225  137.9621  158.2703 C.3     1  UNL1        0.1101
      5 N         143.3566  138.5054  157.0242 N.am    1  UNL1       -0.2680
      6 C         143.4375  137.8067  155.6993 C.2     1  UNL1        0.2495
      7 O         144.1058  138.4785  154.5366 O.2     1  UNL1       -0.2699
      8 N         142.3781  138.8632  160.7632 N.3     1  UNL1       -0.2670
      9 C         140.9590  138.4565  161.0292 C.3     1  UNL1        0.0773
     10 C         140.4675  138.3287  162.4406 C.3     1  UNL1        0.0497
     11 C         141.3950  138.6076  163.5859 C.ar    1  UNL1        0.0473
     12 C         142.8141  139.0143  163.3199 C.ar    1  UNL1        0.0774
     13 N         143.7416  139.2932  164.4653 N.ar    1  UNL1       -0.2271
     14 C         143.2501  139.1654  165.8767 C.ar    1  UNL1        0.2012
     15 N         141.8310  138.7587  166.1427 N.ar    1  UNL1       -0.1896
     16 C         140.9034  138.4798  164.9974 C.ar    1  UNL1        0.2233
     17 C         143.3056  139.1421  161.9086 C.3     1  UNL1        0.1185
     18 O         139.4844  138.0731  165.2634 O.3     1  UNL1       -0.4604
     19 C         138.5170  139.0618  165.8437 C.3     1  UNL1        0.2071
     20 C         138.1707  139.0048  167.3020 C.3     1  UNL1        0.0474
     21 C         138.9501  139.8207  168.2904 C.3     1  UNL1        0.0037
     22 C         140.1665  140.6270  168.6370 C.3     1  UNL1        0.0001
     23 C         139.0837  140.4274  169.6557 C.3     1  UNL1        0.0001
     24 C         142.8500  136.4361  155.5372 C.ar    1  UNL1        0.0566
     25 C         141.9142  136.1510  154.4002 C.ar    1  UNL1        0.0044
     26 C         141.3267  134.7804  154.2380 C.ar    1  UNL1        0.0002
     27 C         141.6751  133.6949  155.2129 C.ar    1  UNL1        0.0274
     28 C         142.6110  133.9800  156.3499 C.ar    1  UNL1        0.1361
     29 C         143.1985  135.3506  156.5121 C.ar    1  UNL1        0.0411
     30 C         141.0876  132.3242  155.0507 C.3     1  UNL1        0.0952
     31 N         141.9660  131.1135  155.1637 N.3     1  UNL1       -0.3174
     32 H         142.6341  131.1051  154.3930 H       1  UNL1        0.1192
     33 H         141.3913  130.2717  155.1247 H       1  UNL1        0.1192
     34 O         142.9594  132.8946  157.3247 O.3     1  UNL1       -0.4717
     35 C         144.3961  132.5414  157.5720 C.3     1  UNL1        0.2525
     36 C         146.7333  141.3739  155.0039 C.3     1  UNL1        0.1107
     37 N         146.0188  140.4683  155.9627 N.am    1  UNL1       -0.3013
     38 C         144.6102  140.7758  156.3767 C.2     1  UNL1        0.2407
     39 O         143.9162  141.9889  155.8320 O.2     1  UNL1       -0.2733
     40 H         146.4743  139.6722  156.3202 H       1  UNL1        0.1495
@<TRIPOS>BOND
     1    36    37    1
     2    37    38   am
     3    38    39    2
     4     1    38    1
     5     1     2    1
     6     2     3    1
     7     3     8    1
     8     8     9    1
     9     9    10    1
    10    10    11    1
    11    11    12   ar
    12    12    13   ar
    13    13    14   ar
    14    14    15   ar
    15    15    16   ar
    16    16    18    1
    17    18    19    1
    18    19    20    1
    19    20    21    1
    20    21    22    1
    21    22    23    1
    22    12    17    1
    23     3     4    1
    24     4     5    1
    25     5     6   am
    26     6     7    2
    27     6    24    1
    28    24    25   ar
    29    25    26   ar
    30    26    27   ar
    31    27    30    1
    32    30    31    1
    33    27    28   ar
    34    28    34    1
    35    34    35    1
    36    28    29   ar
    37     5     1    1
    38    29    24   ar
    39    17     8    1
    40    16    11   ar
    41    23    21    1
    42    37    40    1
    43    31    32    1
    44    31    33    1
@<TRIPOS>MOLECULE
*****
 40 44 0 0 0
SMALL
GASTEIGER

@<TRIPOS>ATOM
      1 C         144.5148  140.8051  156.9500 C.3     1  UNL1        0.1534
      2 C         143.9503  141.1853  158.2867 C.3     1  UNL1        0.0469
      3 C         143.0177  140.0946  158.7233 C.3     1  UNL1        0.0798
      4 C         143.0059  139.0402  157.6566 C.3     1  UNL1        0.1101
      5 N         143.9311  139.4792  156.5606 N.am    1  UNL1       -0.2680
      6 C         144.2217  138.7249  155.2970 C.2     1  UNL1        0.2495
      7 O         145.1746  139.2924  154.2870 O.2     1  UNL1       -0.2699
      8 N         142.2345  140.0637  160.0023 N.3     1  UNL1       -0.2670
      9 C         142.2826  141.2337  160.9397 C.3     1  UNL1        0.0773
     10 C         141.4994  141.2028  162.2186 C.3     1  UNL1        0.0497
     11 C         140.6681  140.0019  162.5601 C.ar    1  UNL1        0.0473
     12 C         140.6200  138.8318  161.6227 C.ar    1  UNL1        0.0774
     13 N         139.7886  137.6309  161.9643 N.ar    1  UNL1       -0.2271
     14 C         139.0054  137.6000  163.2431 C.ar    1  UNL1        0.2012
     15 N         139.0535  138.7700  164.1806 N.ar    1  UNL1       -0.1896
     16 C         139.8849  139.9710  163.8390 C.ar    1  UNL1        0.2233
     17 C         141.4032  138.8628  160.3438 C.3     1  UNL1        0.1185
     18 O         139.9330  141.1410  164.7764 O.3     1  UNL1       -0.4604
     19 C         140.7748  141.0747  166.0162 C.3     1  UNL1        0.2071
     20 C         142.2708  141.0963  165.9090 C.3     1  UNL1        0.0474
     21 C         143.0173  139.8377  165.5794 C.3     1  UNL1        0.0037
     22 C         143.1461  138.3453  165.6580 C.3     1  UNL1        0.0001
     23 C         144.1815  139.1502  164.9300 C.3     1  UNL1        0.0001
     24 C         143.5594  137.4032  155.0434 C.ar    1  UNL1        0.0566
     25 C         142.3502  137.3277  154.1591 C.ar    1  UNL1        0.0044
     26 C         141.6879  136.0060  153.9055 C.ar    1  UNL1        0.0002
     27 C         142.2349  134.7597  154.5361 C.ar    1  UNL1        0.0274
     28 C         143.4442  134.8352  155.4204 C.ar    1  UNL1        0.1361
     29 C         144.1064  136.1569  155.6740 C.ar    1  UNL1        0.0411
     30 C         141.5725  133.4379  154.2824 C.3     1  UNL1        0.0952
     31 N         141.2429  132.5315  155.4312 N.3     1  UNL1       -0.3174
     32 H         142.1061  132.2087  155.8682 H       1  UNL1        0.1192
     33 H         140.7138  131.7290  155.0901 H       1  UNL1        0.1192
     34 O         143.9911  133.5890  156.0510 O.3     1  UNL1       -0.4717
     35 C         144.1283  133.5011  157.5421 C.3     1  UNL1        0.2525
     36 C         147.8916  141.9576  155.2125 C.3     1  UNL1        0.1107
     37 N         146.9149  141.1533  156.0182 N.am    1  UNL1       -0.3013
     38 C         145.4915  141.6093  156.1443 C.2     1  UNL1        0.2407
     39 O         145.0447  142.8696  155.4646 O.2     1  UNL1       -0.2733
     40 H         147.2081  140.3261  156.4644 H       1  UNL1        0.1495
@<TRIPOS>BOND
     1    36    37    1
     2    37    38   am
     3    38    39    2
     4     1    38    1
     5     1     2    1
     6     2     3    1
     7     3     8    1
     8     8     9    1
     9     9    10    1
    10    10    11    1
    11    11    12   ar
    12    12    13   ar
    13    13    14   ar
    14    14    15   ar
    15    15    16   ar
    16    16    18    1
    17    18    19    1
    18    19    20    1
    19    20    21    1
    20    21    22    1
    21    22    23    1
    22    12    17    1
    23     3     4    1
    24     4     5    1
    25     5     6   am
    26     6     7    2
    27     6    24    1
    28    24    25   ar
    29    25    26   ar
    30    26    27   ar
    31    27    30    1
    32    30    31    1
    33    27    28   ar
    34    28    34    1
    35    34    35    1
    36    28    29   ar
    37     5     1    1
    38    29    24   ar
    39    17     8    1
    40    16    11   ar
    41    23    21    1
    42    37    40    1
    43    31    32    1
    44    31    33    1
@<TRIPOS>MOLECULE
*****
 40 44 0 0 0
SMALL
GASTEIGER

@<TRIPOS>ATOM
      1 C         144.0106  140.4576  157.1238 C.3     1  UNL1        0.1534
      2 C         143.4814  140.9528  158.4370 C.3     1  UNL1        0.0469
      3 C         142.5944  139.8878  159.0107 C.3     1  UNL1        0.0798
      4 C         142.5755  138.7343  158.0521 C.3     1  UNL1        0.1101
      5 N         143.4507  139.0864  156.8859 N.am    1  UNL1       -0.2680
      6 C         143.7190  138.2196  155.6915 C.2     1  UNL1        0.2495
      7 O         144.6213  138.7085  154.5974 O.2     1  UNL1       -0.2699
      8 N         141.8560  139.9631  160.3143 N.3     1  UNL1       -0.2670
      9 C         141.8348  141.2460  161.0912 C.3     1  UNL1        0.0773
     10 C         141.0964  141.3213  162.3947 C.3     1  UNL1        0.0497
     11 C         140.3793  140.1136  162.9213 C.ar    1  UNL1        0.0473
     12 C         140.4005  138.8307  162.1443 C.ar    1  UNL1        0.0774
     13 N         139.6834  137.6230  162.6709 N.ar    1  UNL1       -0.2271
     14 C         138.9450  137.6983  163.9744 C.ar    1  UNL1        0.2012
     15 N         138.9238  138.9813  164.7514 N.ar    1  UNL1       -0.1896
     16 C         139.6409  140.1889  164.2248 C.ar    1  UNL1        0.2233
     17 C         141.1389  138.7554  160.8409 C.3     1  UNL1        0.1185
     18 O         139.6197  141.4718  165.0017 O.3     1  UNL1       -0.4604
     19 C         140.0193  141.4798  166.4475 C.3     1  UNL1        0.2071
     20 C         140.5103  142.7467  167.0829 C.3     1  UNL1        0.0474
     21 C         140.3992  142.9333  168.5671 C.3     1  UNL1        0.0037
     22 C         140.6272  143.7685  169.7920 C.3     1  UNL1        0.0001
     23 C         139.9787  142.4214  169.9129 C.3     1  UNL1        0.0001
     24 C         143.0851  136.8639  155.5911 C.ar    1  UNL1        0.0566
     25 C         142.1437  136.5577  154.4641 C.ar    1  UNL1        0.0044
     26 C         141.5097  135.2020  154.3637 C.ar    1  UNL1        0.0002
     27 C         141.8172  134.1524  155.3903 C.ar    1  UNL1        0.0274
     28 C         142.7585  134.4585  156.5172 C.ar    1  UNL1        0.1361
     29 C         143.3925  135.8142  156.6176 C.ar    1  UNL1        0.0411
     30 C         141.1831  132.7966  155.2898 C.3     1  UNL1        0.0952
     31 N         142.0036  131.5650  155.5347 N.3     1  UNL1       -0.3174
     32 H         142.7110  131.4771  154.8051 H       1  UNL1        0.1192
     33 H         141.3976  130.7446  155.5214 H       1  UNL1        0.1192
     34 O         143.0660  133.4090  157.5438 O.3     1  UNL1       -0.4717
     35 C         144.4830  132.9709  157.7674 C.3     1  UNL1        0.2525
     36 C         147.2924  141.5124  155.1573 C.3     1  UNL1        0.1107
     37 N         146.3660  140.7674  156.0720 N.am    1  UNL1       -0.3013
     38 C         144.9370  141.2026  156.2091 C.2     1  UNL1        0.2407
     39 O         144.4345  142.3827  155.4316 O.2     1  UNL1       -0.2733
     40 H         146.6958  139.9928  156.5824 H       1  UNL1        0.1495
@<TRIPOS>BOND
     1    36    37    1
     2    37    38   am
     3    38    39    2
     4     1    38    1
     5     1     2    1
     6     2     3    1
     7     3     8    1
     8     8     9    1
     9     9    10    1
    10    10    11    1
    11    11    12   ar
    12    12    13   ar
    13    13    14   ar
    14    14    15   ar
    15    15    16   ar
    16    16    18    1
    17    18    19    1
    18    19    20    1
    19    20    21    1
    20    21    22    1
    21    22    23    1
    22    12    17    1
    23     3     4    1
    24     4     5    1
    25     5     6   am
    26     6     7    2
    27     6    24    1
    28    24    25   ar
    29    25    26   ar
    30    26    27   ar
    31    27    30    1
    32    30    31    1
    33    27    28   ar
    34    28    34    1
    35    34    35    1
    36    28    29   ar
    37     5     1    1
    38    29    24   ar
    39    17     8    1
    40    16    11   ar
    41    23    21    1
    42    37    40    1
    43    31    32    1
    44    31    33    1
@<TRIPOS>MOLECULE
*****
 40 44 0 0 0
SMALL
GASTEIGER

@<TRIPOS>ATOM
      1 C         142.6105  138.8834  157.3306 C.3     1  UNL1        0.1534
      2 C         141.9951  139.5075  158.5479 C.3     1  UNL1        0.0469
      3 C         142.5364  140.9003  158.6787 C.3     1  UNL1        0.0798
      4 C         143.4863  141.1371  157.5423 C.3     1  UNL1        0.1101
      5 N         143.5322  139.8906  156.7091 N.am    1  UNL1       -0.2680
      6 C         144.3552  139.6869  155.4717 C.2     1  UNL1        0.2495
      7 O         144.2979  138.3789  154.7397 O.2     1  UNL1       -0.2699
      8 N         142.1887  141.8838  159.7567 N.3     1  UNL1       -0.2670
      9 C         140.7513  142.1856  160.0614 C.3     1  UNL1        0.0773
     10 C         140.4037  143.1689  161.1394 C.3     1  UNL1        0.0497
     11 C         141.4934  143.8505  161.9127 C.ar    1  UNL1        0.0473
     12 C         142.9308  143.5487  161.6080 C.ar    1  UNL1        0.0774
     13 N         144.0205  144.2303  162.3813 N.ar    1  UNL1       -0.2271
     14 C         143.6729  145.2136  163.4592 C.ar    1  UNL1        0.2012
     15 N         142.2355  145.5155  163.7640 N.ar    1  UNL1       -0.1896
     16 C         141.1458  144.8339  162.9907 C.ar    1  UNL1        0.2233
     17 C         143.2784  142.5653  160.5300 C.3     1  UNL1        0.1185
     18 O         139.7084  145.1358  163.2954 O.3     1  UNL1       -0.4604
     19 C         139.1290  144.7595  164.6269 C.3     1  UNL1        0.2071
     20 C         137.8471  143.9836  164.6947 C.3     1  UNL1        0.0474
     21 C         137.7740  142.6036  164.1115 C.3     1  UNL1        0.0037
     22 C         137.4941  141.6976  162.9492 C.3     1  UNL1        0.0001
     23 C         137.9274  141.1192  164.2636 C.3     1  UNL1        0.0001
     24 C         145.2354  140.7913  154.9663 C.ar    1  UNL1        0.0566
     25 C         144.7191  141.7490  153.9337 C.ar    1  UNL1        0.0044
     26 C         145.5993  142.8533  153.4283 C.ar    1  UNL1        0.0002
     27 C         146.9960  143.0000  153.9554 C.ar    1  UNL1        0.0274
     28 C         147.5124  142.0423  154.9880 C.ar    1  UNL1        0.1361
     29 C         146.6321  140.9380  155.4934 C.ar    1  UNL1        0.0411
     30 C         147.8763  144.1045  153.4499 C.3     1  UNL1        0.0952
     31 N         147.3449  145.5041  153.3568 N.3     1  UNL1       -0.3174
     32 H         146.6051  145.5409  152.6556 H       1  UNL1        0.1192
     33 H         148.0988  146.1369  153.0893 H       1  UNL1        0.1192
     34 O         148.9090  142.1890  155.5151 O.3     1  UNL1       -0.4717
     35 C         150.0361  141.4362  154.8725 C.3     1  UNL1        0.2525
     36 C         143.1847  135.0836  156.3400 C.3     1  UNL1        0.1107
     37 N         143.4452  136.4711  156.8468 N.am    1  UNL1       -0.3013
     38 C         142.3500  137.4959  156.8239 C.2     1  UNL1        0.2407
     39 O         140.9944  137.1331  156.2941 O.2     1  UNL1       -0.2733
     40 H         144.3349  136.7092  157.1945 H       1  UNL1        0.1495
@<TRIPOS>BOND
     1    36    37    1
     2    37    38   am
     3    38    39    2
     4     1    38    1
     5     1     2    1
     6     2     3    1
     7     3     8    1
     8     8     9    1
     9     9    10    1
    10    10    11    1
    11    11    12   ar
    12    12    13   ar
    13    13    14   ar
    14    14    15   ar
    15    15    16   ar
    16    16    18    1
    17    18    19    1
    18    19    20    1
    19    20    21    1
    20    21    22    1
    21    22    23    1
    22    12    17    1
    23     3     4    1
    24     4     5    1
    25     5     6   am
    26     6     7    2
    27     6    24    1
    28    24    25   ar
    29    25    26   ar
    30    26    27   ar
    31    27    30    1
    32    30    31    1
    33    27    28   ar
    34    28    34    1
    35    34    35    1
    36    28    29   ar
    37     5     1    1
    38    29    24   ar
    39    17     8    1
    40    16    11   ar
    41    23    21    1
    42    37    40    1
    43    31    32    1
    44    31    33    1
@<TRIPOS>MOLECULE
*****
 40 44 0 0 0
SMALL
GASTEIGER

@<TRIPOS>ATOM
      1 C         138.1125  140.4217  155.9544 C.3     1  UNL1        0.1534
      2 C         137.7205  141.0713  157.2483 C.3     1  UNL1        0.0469
      3 C         138.4644  140.3853  158.3556 C.3     1  UNL1        0.0798
      4 C         139.3163  139.3117  157.7459 C.3     1  UNL1        0.1101
      5 N         139.0988  139.3341  156.2619 N.am    1  UNL1       -0.2680
      6 C         139.7527  138.4282  155.2612 C.2     1  UNL1        0.2495
      7 O         139.4354  138.5693  153.8019 O.2     1  UNL1       -0.2699
      8 N         138.3727  140.7150  159.8160 N.3     1  UNL1       -0.2670
      9 C         138.4391  139.6191  160.8380 C.3     1  UNL1        0.0773
     10 C         138.3473  139.9488  162.2984 C.3     1  UNL1        0.0497
     11 C         138.1891  141.3746  162.7368 C.ar    1  UNL1        0.0473
     12 C         138.1227  142.4705  161.7149 C.ar    1  UNL1        0.0774
     13 N         137.9644  143.8963  162.1533 N.ar    1  UNL1       -0.2271
     14 C         137.8727  144.2261  163.6137 C.ar    1  UNL1        0.2012
     15 N         137.9391  143.1301  164.6357 N.ar    1  UNL1       -0.1896
     16 C         138.0973  141.7043  164.1973 C.ar    1  UNL1        0.2233
     17 C         138.2144  142.1408  160.2545 C.3     1  UNL1        0.1185
     18 O         138.1637  140.6084  165.2192 O.3     1  UNL1       -0.4604
     19 C         139.3083  140.5538  166.1872 C.3     1  UNL1        0.2071
     20 C         140.5726  139.8381  165.8142 C.3     1  UNL1        0.0474
     21 C         140.5059  138.4947  165.1504 C.3     1  UNL1        0.0037
     22 C         139.7004  137.3404  164.6320 C.3     1  UNL1        0.0001
     23 C         141.1960  137.3221  164.5188 C.3     1  UNL1        0.0001
     24 C         140.7240  137.3811  155.7196 C.ar    1  UNL1        0.0566
     25 C         141.8103  137.7392  156.6900 C.ar    1  UNL1        0.0044
     26 C         142.7816  136.6921  157.1484 C.ar    1  UNL1        0.0002
     27 C         142.6665  135.2869  156.6365 C.ar    1  UNL1        0.0274
     28 C         141.5802  134.9287  155.6662 C.ar    1  UNL1        0.1361
     29 C         140.6090  135.9758  155.2077 C.ar    1  UNL1        0.0411
     30 C         143.6379  134.2398  157.0950 C.3     1  UNL1        0.0952
     31 N         143.1348  132.9716  157.7183 N.3     1  UNL1       -0.3174
     32 H         142.6825  133.1857  158.6071 H       1  UNL1        0.1192
     33 H         143.9177  132.3379  157.8792 H       1  UNL1        0.1192
     34 O         141.4652  133.5235  155.1543 O.3     1  UNL1       -0.4717
     35 C         141.3072  133.2715  153.6841 C.3     1  UNL1        0.2525
     36 C         138.0085  141.8605  152.2573 C.3     1  UNL1        0.1107
     37 N         138.5140  141.4880  153.6195 N.am    1  UNL1       -0.3013
     38 C         137.6070  140.7942  154.5922 C.2     1  UNL1        0.2407
     39 O         136.1946  140.4728  154.2026 O.2     1  UNL1       -0.2733
     40 H         139.4410  141.6989  153.8752 H       1  UNL1        0.1495
@<TRIPOS>BOND
     1    36    37    1
     2    37    38   am
     3    38    39    2
     4     1    38    1
     5     1     2    1
     6     2     3    1
     7     3     8    1
     8     8     9    1
     9     9    10    1
    10    10    11    1
    11    11    12   ar
    12    12    13   ar
    13    13    14   ar
    14    14    15   ar
    15    15    16   ar
    16    16    18    1
    17    18    19    1
    18    19    20    1
    19    20    21    1
    20    21    22    1
    21    22    23    1
    22    12    17    1
    23     3     4    1
    24     4     5    1
    25     5     6   am
    26     6     7    2
    27     6    24    1
    28    24    25   ar
    29    25    26   ar
    30    26    27   ar
    31    27    30    1
    32    30    31    1
    33    27    28   ar
    34    28    34    1
    35    34    35    1
    36    28    29   ar
    37     5     1    1
    38    29    24   ar
    39    17     8    1
    40    16    11   ar
    41    23    21    1
    42    37    40    1
    43    31    32    1
    44    31    33    1
@<TRIPOS>MOLECULE
*****
 40 44 0 0 0
SMALL
GASTEIGER

@<TRIPOS>ATOM
      1 C         145.6317  141.5588  156.4336 C.3     1  UNL1        0.1534
      2 C         145.2492  142.1996  157.7348 C.3     1  UNL1        0.0469
      3 C         144.1559  141.3788  158.3521 C.3     1  UNL1        0.0798
      4 C         143.8628  140.2306  157.4325 C.3     1  UNL1        0.1101
      5 N         144.7748  140.3418  156.2468 N.am    1  UNL1       -0.2680
      6 C         144.8218  139.4012  155.0793 C.2     1  UNL1        0.2495
      7 O         145.7921  139.6417  153.9609 O.2     1  UNL1       -0.2699
      8 N         143.4753  141.6573  159.6595 N.3     1  UNL1       -0.2670
      9 C         142.7473  140.5583  160.3751 C.3     1  UNL1        0.0773
     10 C         142.0668  140.8369  161.6825 C.3     1  UNL1        0.0497
     11 C         142.1142  142.2144  162.2742 C.ar    1  UNL1        0.0473
     12 C         142.8422  143.3134  161.5585 C.ar    1  UNL1        0.0774
     13 N         142.8896  144.6910  162.1502 N.ar    1  UNL1       -0.2271
     14 C         142.2090  144.9695  163.4576 C.ar    1  UNL1        0.2012
     15 N         141.4810  143.8705  164.1733 N.ar    1  UNL1       -0.1896
     16 C         141.4336  142.4929  163.5816 C.ar    1  UNL1        0.2233
     17 C         143.5227  143.0349  160.2512 C.3     1  UNL1        0.1185
     18 O         140.7056  141.3939  164.2972 O.3     1  UNL1       -0.4604
     19 C         141.4664  140.4196  165.1469 C.3     1  UNL1        0.2071
     20 C         142.8386  140.7684  165.6423 C.3     1  UNL1        0.0474
     21 C         144.0461  140.3802  164.8416 C.3     1  UNL1        0.0037
     22 C         145.1590  140.7509  163.9067 C.3     1  UNL1        0.0001
     23 C         145.0247  139.3372  164.3896 C.3     1  UNL1        0.0001
     24 C         143.8986  138.2200  155.0301 C.ar    1  UNL1        0.0566
     25 C         142.5221  138.3677  154.4527 C.ar    1  UNL1        0.0044
     26 C         141.5988  137.1865  154.4035 C.ar    1  UNL1        0.0002
     27 C         142.0520  135.8578  154.9318 C.ar    1  UNL1        0.0274
     28 C         143.4285  135.7102  155.5092 C.ar    1  UNL1        0.1361
     29 C         144.3518  136.8913  155.5584 C.ar    1  UNL1        0.0411
     30 C         141.1286  134.6766  154.8826 C.3     1  UNL1        0.0952
     31 N         141.6270  133.3556  154.3759 N.3     1  UNL1       -0.3174
     32 H         141.8548  133.4356  153.3849 H       1  UNL1        0.1192
     33 H         140.9034  132.6480  154.5025 H       1  UNL1        0.1192
     34 O         143.8817  134.3815  156.0375 O.3     1  UNL1       -0.4717
     35 C         143.6648  134.0346  157.4806 C.3     1  UNL1        0.2525
     36 C         149.1105  141.9289  154.5599 C.3     1  UNL1        0.1107
     37 N         148.0562  141.4389  155.5077 N.am    1  UNL1       -0.3013
     38 C         146.6860  142.0488  155.4858 C.2     1  UNL1        0.2407
     39 O         146.3699  143.1486  154.5160 O.2     1  UNL1       -0.2733
     40 H         148.2636  140.7170  156.1442 H       1  UNL1        0.1495
@<TRIPOS>BOND
     1    36    37    1
     2    37    38   am
     3    38    39    2
     4     1    38    1
     5     1     2    1
     6     2     3    1
     7     3     8    1
     8     8     9    1
     9     9    10    1
    10    10    11    1
    11    11    12   ar
    12    12    13   ar
    13    13    14   ar
    14    14    15   ar
    15    15    16   ar
    16    16    18    1
    17    18    19    1
    18    19    20    1
    19    20    21    1
    20    21    22    1
    21    22    23    1
    22    12    17    1
    23     3     4    1
    24     4     5    1
    25     5     6   am
    26     6     7    2
    27     6    24    1
    28    24    25   ar
    29    25    26   ar
    30    26    27   ar
    31    27    30    1
    32    30    31    1
    33    27    28   ar
    34    28    34    1
    35    34    35    1
    36    28    29   ar
    37     5     1    1
    38    29    24   ar
    39    17     8    1
    40    16    11   ar
    41    23    21    1
    42    37    40    1
    43    31    32    1
    44    31    33    1
