@<TRIPOS>MOLECULE
*****
 26 29 0 0 0
SMALL
GASTEIGER

@<TRIPOS>ATOM
      1 C         138.4003  138.0041  162.2483 C.ar    1  UNL1        0.1195
      2 C         138.3513  139.3648  161.6192 C.ar    1  UNL1        0.1196
      3 N         138.5906  140.5868  162.4555 N.ar    1  UNL1       -0.2379
      4 C         138.8789  140.4481  163.9209 C.ar    1  UNL1        0.1302
      5 C         139.1182  141.6701  164.7572 C.ar    1  UNL1        0.1478
      6 N         139.4065  141.5313  166.2227 N.ar    1  UNL1       -0.2278
      7 C         139.4555  140.1705  166.8519 C.ar    1  UNL1        0.1013
      8 C         139.2161  138.9485  166.0156 C.ar    1  UNL1        0.0414
      9 C         138.9279  139.0873  164.5501 C.ar    1  UNL1        0.1032
     10 N         138.6885  137.8653  163.7137 N.ar    1  UNL1       -0.2405
     11 C         139.7437  140.0318  168.3174 C.ar    1  UNL1        0.0931
     12 C         141.1012  140.0566  168.9552 C.ar    1  UNL1        0.0424
     13 C         140.9216  139.8840  170.4343 C.ar    1  UNL1        0.1215
     14 N         139.4531  139.7524  170.7107 N.ar    1  UNL1       -0.1710
     15 N         138.7252  139.8438  169.4023 N.ar    1  UNL1       -0.2742
     16 H         137.7501  139.7898  169.2776 H       1  UNL1        0.1890
     17 N         139.0693  143.0309  164.1281 N.pl3   1  UNL1       -0.3168
     18 H         138.4258  143.2167  163.4065 H       1  UNL1        0.1482
     19 C         140.0007  144.1085  164.5983 C.3     1  UNL1        0.0895
     20 C         141.3863  144.2023  164.0313 C.3     1  UNL1        0.0353
     21 C         142.5161  143.4644  164.6861 C.3     1  UNL1        0.0045
     22 C         143.9017  143.5581  164.1191 C.3     1  UNL1        0.0172
     23 C         144.1573  144.3899  162.8972 C.3     1  UNL1        0.0686
     24 N         143.0275  145.1278  162.2424 N.3     1  UNL1       -0.2974
     25 C         141.6419  145.0340  162.8094 C.3     1  UNL1        0.0702
     26 H         142.9752  144.7927  161.2804 H       1  UNL1        0.1232
@<TRIPOS>BOND
     1     1     2   ar
     2     2     3   ar
     3     3     4   ar
     4     4     5   ar
     5     5    17    1
     6    17    19    1
     7    20    19    1
     8    20    21    1
     9    21    22    1
    10    22    23    1
    11    23    24    1
    12    24    25    1
    13     5     6   ar
    14     6     7   ar
    15     7    11    1
    16    11    12   ar
    17    12    13   ar
    18    13    14   ar
    19    14    15   ar
    20     7     8   ar
    21     8     9   ar
    22     9    10   ar
    23    10     1   ar
    24     9     4   ar
    25    25    20    1
    26    15    11   ar
    27    17    18    1
    28    24    26    1
    29    15    16    1
@<TRIPOS>MOLECULE
*****
 26 29 0 0 0
SMALL
GASTEIGER

@<TRIPOS>ATOM
      1 C         138.1672  143.2577  162.6733 C.ar    1  UNL1        0.1195
      2 C         137.4043  141.9673  162.7227 C.ar    1  UNL1        0.1196
      3 N         137.6339  141.0028  163.8483 N.ar    1  UNL1       -0.2379
      4 C         138.6265  141.3288  164.9246 C.ar    1  UNL1        0.1302
      5 C         138.8562  140.3643  166.0502 C.ar    1  UNL1        0.1478
      6 N         139.8488  140.6903  167.1265 N.ar    1  UNL1       -0.2278
      7 C         140.6118  141.9808  167.0771 C.ar    1  UNL1        0.1013
      8 C         140.3822  142.9453  165.9515 C.ar    1  UNL1        0.0414
      9 C         139.3895  142.6192  164.8752 C.ar    1  UNL1        0.1032
     10 N         139.1599  143.5837  163.7496 N.ar    1  UNL1       -0.2405
     11 C         141.6045  142.3068  168.1534 C.ar    1  UNL1        0.0931
     12 C         141.2803  142.8100  169.5288 C.ar    1  UNL1        0.0424
     13 C         142.5710  143.0010  170.2687 C.ar    1  UNL1        0.1215
     14 N         143.6930  142.6159  169.3505 N.ar    1  UNL1       -0.1710
     15 N         143.0956  142.1869  168.0432 N.ar    1  UNL1       -0.2742
     16 H         143.5946  141.8804  167.2518 H       1  UNL1        0.1890
     17 N         138.0932  139.0738  166.0996 N.pl3   1  UNL1       -0.3168
     18 H         137.1620  139.0644  166.4190 H       1  UNL1        0.1482
     19 C         138.7490  137.7976  165.6622 C.3     1  UNL1        0.0895
     20 C         139.5839  137.7720  164.4162 C.3     1  UNL1        0.0353
     21 C         141.0783  137.8580  164.5129 C.3     1  UNL1        0.0045
     22 C         141.9131  137.8325  163.2670 C.3     1  UNL1        0.0172
     23 C         141.2536  137.7210  161.9243 C.3     1  UNL1        0.0686
     24 N         139.7592  137.6350  161.8277 N.3     1  UNL1       -0.2974
     25 C         138.9243  137.6606  163.0737 C.3     1  UNL1        0.0702
     26 H         139.5450  136.7610  161.3475 H       1  UNL1        0.1232
@<TRIPOS>BOND
     1     1     2   ar
     2     2     3   ar
     3     3     4   ar
     4     4     5   ar
     5     5    17    1
     6    17    19    1
     7    20    19    1
     8    20    21    1
     9    21    22    1
    10    22    23    1
    11    23    24    1
    12    24    25    1
    13     5     6   ar
    14     6     7   ar
    15     7    11    1
    16    11    12   ar
    17    12    13   ar
    18    13    14   ar
    19    14    15   ar
    20     7     8   ar
    21     8     9   ar
    22     9    10   ar
    23    10     1   ar
    24     9     4   ar
    25    25    20    1
    26    15    11   ar
    27    17    18    1
    28    24    26    1
    29    15    16    1
@<TRIPOS>MOLECULE
*****
 26 29 0 0 0
SMALL
GASTEIGER

@<TRIPOS>ATOM
      1 C         142.3639  139.4715  169.4921 C.ar    1  UNL1        0.1195
      2 C         140.9280  139.9046  169.5177 C.ar    1  UNL1        0.1196
      3 N         140.1495  139.9964  168.2388 N.ar    1  UNL1       -0.2379
      4 C         140.8067  139.6550  166.9345 C.ar    1  UNL1        0.1302
      5 C         140.0282  139.7468  165.6557 C.ar    1  UNL1        0.1478
      6 N         140.6854  139.4055  164.3513 N.ar    1  UNL1       -0.2278
      7 C         142.1214  138.9723  164.3257 C.ar    1  UNL1        0.1013
      8 C         142.8999  138.8805  165.6045 C.ar    1  UNL1        0.0414
      9 C         142.2426  139.2219  166.9089 C.ar    1  UNL1        0.1032
     10 N         143.0212  139.1301  168.1878 N.ar    1  UNL1       -0.2405
     11 C         142.7786  138.6310  163.0213 C.ar    1  UNL1        0.0931
     12 C         143.9529  139.3395  162.4137 C.ar    1  UNL1        0.0424
     13 C         144.2771  138.6676  161.1124 C.ar    1  UNL1        0.1215
     14 N         143.3031  137.5438  160.9157 N.ar    1  UNL1       -0.1710
     15 N         142.3771  137.5212  162.0955 N.ar    1  UNL1       -0.2742
     16 H         141.6359  136.8890  162.2373 H       1  UNL1        0.1890
     17 N         138.5923  140.1799  165.6812 N.pl3   1  UNL1       -0.3168
     18 H         138.0961  140.1894  166.5314 H       1  UNL1        0.1482
     19 C         137.9125  140.5985  164.4113 C.3     1  UNL1        0.0895
     20 C         138.0683  142.0017  163.9045 C.3     1  UNL1        0.0353
     21 C         138.6056  143.0706  164.8094 C.3     1  UNL1        0.0045
     22 C         138.7615  144.4737  164.3027 C.3     1  UNL1        0.0172
     23 C         138.3800  144.8081  162.8910 C.3     1  UNL1        0.0686
     24 N         137.8427  143.7392  161.9861 N.3     1  UNL1       -0.2974
     25 C         137.6869  142.3360  162.4929 C.3     1  UNL1        0.0702
     26 H         138.4671  143.6938  161.1809 H       1  UNL1        0.1232
@<TRIPOS>BOND
     1     1     2   ar
     2     2     3   ar
     3     3     4   ar
     4     4     5   ar
     5     5    17    1
     6    17    19    1
     7    20    19    1
     8    20    21    1
     9    21    22    1
    10    22    23    1
    11    23    24    1
    12    24    25    1
    13     5     6   ar
    14     6     7   ar
    15     7    11    1
    16    11    12   ar
    17    12    13   ar
    18    13    14   ar
    19    14    15   ar
    20     7     8   ar
    21     8     9   ar
    22     9    10   ar
    23    10     1   ar
    24     9     4   ar
    25    25    20    1
    26    15    11   ar
    27    17    18    1
    28    24    26    1
    29    15    16    1
@<TRIPOS>MOLECULE
*****
 26 29 0 0 0
SMALL
GASTEIGER

@<TRIPOS>ATOM
      1 C         143.4682  138.2129  161.7685 C.ar    1  UNL1        0.1195
      2 C         142.0185  138.2289  161.3834 C.ar    1  UNL1        0.1196
      3 N         140.9765  138.5914  162.3997 N.ar    1  UNL1       -0.2379
      4 C         141.3841  138.9379  163.8010 C.ar    1  UNL1        0.1302
      5 C         140.3421  139.3004  164.8173 C.ar    1  UNL1        0.1478
      6 N         140.7497  139.6469  166.2186 N.ar    1  UNL1       -0.2278
      7 C         142.1994  139.6308  166.6037 C.ar    1  UNL1        0.1013
      8 C         143.2414  139.2683  165.5875 C.ar    1  UNL1        0.0414
      9 C         142.8337  138.9218  164.1861 C.ar    1  UNL1        0.1032
     10 N         143.8758  138.5593  163.1698 N.ar    1  UNL1       -0.2405
     11 C         142.6070  139.9773  168.0051 C.ar    1  UNL1        0.0931
     12 C         142.8399  141.3595  168.5393 C.ar    1  UNL1        0.0424
     13 C         143.2301  141.2389  169.9827 C.ar    1  UNL1        0.1215
     14 N         143.2383  139.7821  170.3404 N.ar    1  UNL1       -0.1710
     15 N         142.8532  139.0025  169.1182 N.ar    1  UNL1       -0.2742
     16 H         142.7757  138.0230  169.0573 H       1  UNL1        0.1890
     17 N         138.8925  139.3164  164.4322 N.pl3   1  UNL1       -0.3168
     18 H         138.5238  138.5950  163.8729 H       1  UNL1        0.1482
     19 C         138.0047  140.4315  164.8994 C.3     1  UNL1        0.0895
     20 C         138.0761  141.7751  164.2362 C.3     1  UNL1        0.0353
     21 C         138.8114  142.9012  164.9005 C.3     1  UNL1        0.0045
     22 C         138.8829  144.2447  164.2374 C.3     1  UNL1        0.0172
     23 C         138.2191  144.4622  162.9099 C.3     1  UNL1        0.0686
     24 N         137.4838  143.3361  162.2456 N.3     1  UNL1       -0.2974
     25 C         137.4123  141.9926  162.9088 C.3     1  UNL1        0.0702
     26 H         137.9238  143.1928  161.3366 H       1  UNL1        0.1232
@<TRIPOS>BOND
     1     1     2   ar
     2     2     3   ar
     3     3     4   ar
     4     4     5   ar
     5     5    17    1
     6    17    19    1
     7    20    19    1
     8    20    21    1
     9    21    22    1
    10    22    23    1
    11    23    24    1
    12    24    25    1
    13     5     6   ar
    14     6     7   ar
    15     7    11    1
    16    11    12   ar
    17    12    13   ar
    18    13    14   ar
    19    14    15   ar
    20     7     8   ar
    21     8     9   ar
    22     9    10   ar
    23    10     1   ar
    24     9     4   ar
    25    25    20    1
    26    15    11   ar
    27    17    18    1
    28    24    26    1
    29    15    16    1
@<TRIPOS>MOLECULE
*****
 26 29 0 0 0
SMALL
GASTEIGER

@<TRIPOS>ATOM
      1 C         142.6643  138.0629  162.4543 C.ar    1  UNL1        0.1195
      2 C         141.5351  138.3841  161.5207 C.ar    1  UNL1        0.1196
      3 N         140.2516  138.9422  162.0602 N.ar    1  UNL1       -0.2379
      4 C         140.0973  139.1792  163.5333 C.ar    1  UNL1        0.1302
      5 C         138.8138  139.7374  164.0728 C.ar    1  UNL1        0.1478
      6 N         138.6595  139.9744  165.5459 N.ar    1  UNL1       -0.2278
      7 C         139.7888  139.6532  166.4795 C.ar    1  UNL1        0.1013
      8 C         141.0723  139.0950  165.9400 C.ar    1  UNL1        0.0414
      9 C         141.2265  138.8580  164.4669 C.ar    1  UNL1        0.1032
     10 N         142.5101  138.2999  163.9274 N.ar    1  UNL1       -0.2405
     11 C         139.6345  139.8901  167.9526 C.ar    1  UNL1        0.0931
     12 C         140.6389  140.5515  168.8492 C.ar    1  UNL1        0.0424
     13 C         140.0740  140.5775  170.2385 C.ar    1  UNL1        0.1215
     14 N         138.7203  139.9322  170.2005 N.ar    1  UNL1       -0.1710
     15 N         138.4488  139.5074  168.7877 N.ar    1  UNL1       -0.2742
     16 H         137.6352  139.0566  168.4653 H       1  UNL1        0.1890
     17 N         137.6846  140.0586  163.1392 N.pl3   1  UNL1       -0.3168
     18 H         137.4023  139.4006  162.4634 H       1  UNL1        0.1482
     19 C         136.9854  141.3822  163.2352 C.3     1  UNL1        0.0895
     20 C         137.7717  142.6552  163.1286 C.3     1  UNL1        0.0353
     21 C         138.0647  143.4610  164.3593 C.3     1  UNL1        0.0045
     22 C         138.8509  144.7340  164.2527 C.3     1  UNL1        0.0172
     23 C         139.3442  145.2011  162.9153 C.3     1  UNL1        0.0686
     24 N         139.0512  144.3952  161.6845 N.3     1  UNL1       -0.2974
     25 C         138.2649  143.1222  161.7912 C.3     1  UNL1        0.0702
     26 H         139.9511  144.1517  161.2709 H       1  UNL1        0.1232
@<TRIPOS>BOND
     1     1     2   ar
     2     2     3   ar
     3     3     4   ar
     4     4     5   ar
     5     5    17    1
     6    17    19    1
     7    20    19    1
     8    20    21    1
     9    21    22    1
    10    22    23    1
    11    23    24    1
    12    24    25    1
    13     5     6   ar
    14     6     7   ar
    15     7    11    1
    16    11    12   ar
    17    12    13   ar
    18    13    14   ar
    19    14    15   ar
    20     7     8   ar
    21     8     9   ar
    22     9    10   ar
    23    10     1   ar
    24     9     4   ar
    25    25    20    1
    26    15    11   ar
    27    17    18    1
    28    24    26    1
    29    15    16    1
@<TRIPOS>MOLECULE
*****
 26 29 0 0 0
SMALL
GASTEIGER

@<TRIPOS>ATOM
      1 C         144.8734  142.7164  163.1784 C.ar    1  UNL1        0.1195
      2 C         144.1149  143.7886  162.4537 C.ar    1  UNL1        0.1196
      3 N         142.7593  144.2076  162.9402 N.ar    1  UNL1       -0.2379
      4 C         142.1621  143.5544  164.1513 C.ar    1  UNL1        0.1302
      5 C         140.8065  143.9734  164.6377 C.ar    1  UNL1        0.1478
      6 N         140.2093  143.3203  165.8488 N.ar    1  UNL1       -0.2278
      7 C         140.9678  142.2481  166.5735 C.ar    1  UNL1        0.1013
      8 C         142.3235  141.8291  166.0870 C.ar    1  UNL1        0.0414
      9 C         142.9206  142.4823  164.8759 C.ar    1  UNL1        0.1032
     10 N         144.2763  142.0633  164.3894 N.ar    1  UNL1       -0.2405
     11 C         140.3707  141.5949  167.7846 C.ar    1  UNL1        0.0931
     12 C         140.2318  142.2158  169.1430 C.ar    1  UNL1        0.0424
     13 C         139.5829  141.2108  170.0479 C.ar    1  UNL1        0.1215
     14 N         139.3206  139.9688  169.2487 N.ar    1  UNL1       -0.1710
     15 N         139.8075  140.2062  167.8499 N.ar    1  UNL1       -0.2742
     16 H         139.7649  139.5634  167.1054 H       1  UNL1        0.1890
     17 N         140.0480  145.0456  163.9131 N.pl3   1  UNL1       -0.3168
     18 H         140.4650  145.9236  163.7567 H       1  UNL1        0.1482
     19 C         138.6541  144.7801  163.4268 C.3     1  UNL1        0.0895
     20 C         138.3024  143.4392  162.8536 C.3     1  UNL1        0.0353
     21 C         138.9128  142.9941  161.5578 C.3     1  UNL1        0.0045
     22 C         138.5612  141.6533  160.9845 C.3     1  UNL1        0.0172
     23 C         137.5990  140.7576  161.7072 C.3     1  UNL1        0.0686
     24 N         136.9886  141.2027  163.0030 N.3     1  UNL1       -0.2974
     25 C         137.3403  142.5436  163.5762 C.3     1  UNL1        0.0702
     26 H         137.2444  140.5068  163.7034 H       1  UNL1        0.1232
@<TRIPOS>BOND
     1     1     2   ar
     2     2     3   ar
     3     3     4   ar
     4     4     5   ar
     5     5    17    1
     6    17    19    1
     7    20    19    1
     8    20    21    1
     9    21    22    1
    10    22    23    1
    11    23    24    1
    12    24    25    1
    13     5     6   ar
    14     6     7   ar
    15     7    11    1
    16    11    12   ar
    17    12    13   ar
    18    13    14   ar
    19    14    15   ar
    20     7     8   ar
    21     8     9   ar
    22     9    10   ar
    23    10     1   ar
    24     9     4   ar
    25    25    20    1
    26    15    11   ar
    27    17    18    1
    28    24    26    1
    29    15    16    1
@<TRIPOS>MOLECULE
*****
 26 29 0 0 0
SMALL
GASTEIGER

@<TRIPOS>ATOM
      1 C         140.3313  142.9412  170.1663 C.ar    1  UNL1        0.1195
      2 C         140.6737  142.0287  171.3065 C.ar    1  UNL1        0.1196
      3 N         141.4426  140.7662  171.0518 N.ar    1  UNL1       -0.2379
      4 C         141.8691  140.4161  169.6570 C.ar    1  UNL1        0.1302
      5 C         142.6380  139.1536  169.4024 C.ar    1  UNL1        0.1478
      6 N         143.0644  138.8036  168.0076 N.ar    1  UNL1       -0.2278
      7 C         142.7220  139.7161  166.8673 C.ar    1  UNL1        0.1013
      8 C         141.9531  140.9786  167.1219 C.ar    1  UNL1        0.0414
      9 C         141.5266  141.3286  168.5168 C.ar    1  UNL1        0.1032
     10 N         140.7578  142.5912  168.7715 N.ar    1  UNL1       -0.2405
     11 C         143.1484  139.3661  165.4725 C.ar    1  UNL1        0.0931
     12 C         142.3715  138.5342  164.4955 C.ar    1  UNL1        0.0424
     13 C         143.1696  138.4404  163.2289 C.ar    1  UNL1        0.1215
     14 N         144.4398  139.2144  163.4231 N.ar    1  UNL1       -0.1710
     15 N         144.4267  139.7864  164.8097 N.ar    1  UNL1       -0.2742
     16 H         145.1331  140.3405  165.2138 H       1  UNL1        0.1890
     17 N         142.9804  138.2411  170.5425 N.pl3   1  UNL1       -0.3168
     18 H         142.6612  138.4471  171.4508 H       1  UNL1        0.1482
     19 C         143.8091  137.0148  170.2989 C.3     1  UNL1        0.0895
     20 C         144.6993  136.4836  171.3831 C.3     1  UNL1        0.0353
     21 C         144.7213  135.0140  171.6827 C.3     1  UNL1        0.0045
     22 C         145.6115  134.4828  172.7668 C.3     1  UNL1        0.0172
     23 C         146.4798  135.4213  173.5514 C.3     1  UNL1        0.0686
     24 N         146.4578  136.8909  173.2518 N.3     1  UNL1       -0.2974
     25 C         145.5676  137.4221  172.1676 C.3     1  UNL1        0.0702
     26 H         147.4116  137.1555  173.0057 H       1  UNL1        0.1232
@<TRIPOS>BOND
     1     1     2   ar
     2     2     3   ar
     3     3     4   ar
     4     4     5   ar
     5     5    17    1
     6    17    19    1
     7    20    19    1
     8    20    21    1
     9    21    22    1
    10    22    23    1
    11    23    24    1
    12    24    25    1
    13     5     6   ar
    14     6     7   ar
    15     7    11    1
    16    11    12   ar
    17    12    13   ar
    18    13    14   ar
    19    14    15   ar
    20     7     8   ar
    21     8     9   ar
    22     9    10   ar
    23    10     1   ar
    24     9     4   ar
    25    25    20    1
    26    15    11   ar
    27    17    18    1
    28    24    26    1
    29    15    16    1
@<TRIPOS>MOLECULE
*****
 26 29 0 0 0
SMALL
GASTEIGER

@<TRIPOS>ATOM
      1 C         138.9420  138.0327  162.1922 C.ar    1  UNL1        0.1195
      2 C         139.9530  138.9422  161.5593 C.ar    1  UNL1        0.1196
      3 N         140.7535  139.8822  162.4112 N.ar    1  UNL1       -0.2379
      4 C         140.5428  139.9127  163.8960 C.ar    1  UNL1        0.1302
      5 C         141.3432  140.8527  164.7479 C.ar    1  UNL1        0.1478
      6 N         141.1326  140.8833  166.2327 N.ar    1  UNL1       -0.2278
      7 C         140.1215  139.9738  166.8657 C.ar    1  UNL1        0.1013
      8 C         139.3211  139.0338  166.0138 C.ar    1  UNL1        0.0414
      9 C         139.5318  139.0033  164.5289 C.ar    1  UNL1        0.1032
     10 N         138.7313  138.0633  163.6770 N.ar    1  UNL1       -0.2405
     11 C         139.9109  140.0044  168.3505 C.ar    1  UNL1        0.0931
     12 C         140.9314  140.3952  169.3779 C.ar    1  UNL1        0.0424
     13 C         140.2940  140.2819  170.7310 C.ar    1  UNL1        0.1215
     14 N         138.8794  139.8209  170.5397 N.ar    1  UNL1       -0.1710
     15 N         138.6426  139.6495  169.0685 N.ar    1  UNL1       -0.2742
     16 H         137.8024  139.3556  168.6480 H       1  UNL1        0.1890
     17 N         142.3543  141.7622  164.1150 N.pl3   1  UNL1       -0.3168
     18 H         143.2440  141.4168  163.8732 H       1  UNL1        0.1482
     19 C         142.0099  143.1979  163.8504 C.3     1  UNL1        0.0895
     20 C         140.5811  143.5983  163.6306 C.3     1  UNL1        0.0353
     21 C         139.7590  144.1048  164.7786 C.3     1  UNL1        0.0045
     22 C         138.3303  144.5051  164.5588 C.3     1  UNL1        0.0172
     23 C         137.7234  144.3989  163.1911 C.3     1  UNL1        0.0686
     24 N         138.5455  143.8924  162.0432 N.3     1  UNL1       -0.2974
     25 C         139.9743  143.4921  162.2630 C.3     1  UNL1        0.0702
     26 H         138.5512  144.6289  161.3376 H       1  UNL1        0.1232
@<TRIPOS>BOND
     1     1     2   ar
     2     2     3   ar
     3     3     4   ar
     4     4     5   ar
     5     5    17    1
     6    17    19    1
     7    20    19    1
     8    20    21    1
     9    21    22    1
    10    22    23    1
    11    23    24    1
    12    24    25    1
    13     5     6   ar
    14     6     7   ar
    15     7    11    1
    16    11    12   ar
    17    12    13   ar
    18    13    14   ar
    19    14    15   ar
    20     7     8   ar
    21     8     9   ar
    22     9    10   ar
    23    10     1   ar
    24     9     4   ar
    25    25    20    1
    26    15    11   ar
    27    17    18    1
    28    24    26    1
    29    15    16    1
@<TRIPOS>MOLECULE
*****
 26 29 0 0 0
SMALL
GASTEIGER

@<TRIPOS>ATOM
      1 C         142.4877  141.0395  168.9362 C.ar    1  UNL1        0.1195
      2 C         141.5827  139.8487  169.0492 C.ar    1  UNL1        0.1196
      3 N         140.4342  139.6865  168.0981 N.ar    1  UNL1       -0.2379
      4 C         140.1907  140.7152  167.0340 C.ar    1  UNL1        0.1302
      5 C         139.0421  140.5530  166.0829 C.ar    1  UNL1        0.1478
      6 N         138.7986  141.5817  165.0187 N.ar    1  UNL1       -0.2278
      7 C         139.7036  142.7726  164.9056 C.ar    1  UNL1        0.1013
      8 C         140.8522  142.9348  165.8567 C.ar    1  UNL1        0.0414
      9 C         141.0957  141.9060  166.9209 C.ar    1  UNL1        0.1032
     10 N         142.2442  142.0682  167.8720 N.ar    1  UNL1       -0.2405
     11 C         139.4601  143.8013  163.8415 C.ar    1  UNL1        0.0931
     12 C         140.5025  144.6643  163.1943 C.ar    1  UNL1        0.0424
     13 C         139.8181  145.5440  162.1905 C.ar    1  UNL1        0.1215
     14 N         138.3527  145.2247  162.2173 N.ar    1  UNL1       -0.1710
     15 N         138.1315  144.1477  163.2376 N.ar    1  UNL1       -0.2742
     16 H         137.2662  143.7397  163.4701 H       1  UNL1        0.1890
     17 N         138.1371  139.3622  166.1959 N.pl3   1  UNL1       -0.3168
     18 H         137.2369  139.4629  166.5814 H       1  UNL1        0.1482
     19 C         138.6037  138.0178  165.7216 C.3     1  UNL1        0.0895
     20 C         139.4565  137.9108  164.4922 C.3     1  UNL1        0.0353
     21 C         140.9506  137.9773  164.6076 C.3     1  UNL1        0.0045
     22 C         141.8033  137.8702  163.3782 C.3     1  UNL1        0.0172
     23 C         141.1620  137.6966  162.0334 C.3     1  UNL1        0.0686
     24 N         139.6679  137.6301  161.9179 N.3     1  UNL1       -0.2974
     25 C         138.8151  137.7372  163.1474 C.3     1  UNL1        0.0702
     26 H         139.4458  136.7348  161.4826 H       1  UNL1        0.1232
@<TRIPOS>BOND
     1     1     2   ar
     2     2     3   ar
     3     3     4   ar
     4     4     5   ar
     5     5    17    1
     6    17    19    1
     7    20    19    1
     8    20    21    1
     9    21    22    1
    10    22    23    1
    11    23    24    1
    12    24    25    1
    13     5     6   ar
    14     6     7   ar
    15     7    11    1
    16    11    12   ar
    17    12    13   ar
    18    13    14   ar
    19    14    15   ar
    20     7     8   ar
    21     8     9   ar
    22     9    10   ar
    23    10     1   ar
    24     9     4   ar
    25    25    20    1
    26    15    11   ar
    27    17    18    1
    28    24    26    1
    29    15    16    1
