@<TRIPOS>MOLECULE
*****
 32 36 0 0 0
SMALL
GASTEIGER

@<TRIPOS>ATOM
      1 C         141.7850  141.2525  169.0995 C.ar    1  UNL1        0.0882
      2 N         142.7744  141.3651  167.9776 N.ar    1  UNL1       -0.2427
      3 C         142.1368  142.1573  166.8750 C.ar    1  UNL1        0.0871
      4 C         142.6373  142.5840  165.5269 C.ar    1  UNL1        0.0151
      5 C         141.7542  143.3879  164.6191 C.ar    1  UNL1       -0.0232
      6 C         140.3708  143.7649  165.0594 C.ar    1  UNL1       -0.0241
      7 C         139.8703  143.3382  166.4075 C.ar    1  UNL1        0.0035
      8 C         140.7533  142.5343  167.3153 C.ar    1  UNL1        0.0478
      9 S         140.5359  141.9751  168.6901 S.2     1  UNL1       -0.0708
     10 C         139.3355  144.5555  164.3156 C.3     1  UNL1        0.0434
     11 C         139.4280  145.1643  162.9477 C.3     1  UNL1        0.0768
     12 N         140.5786  145.1328  161.9860 N.3     1  UNL1       -0.2720
     13 C         141.9209  144.4848  162.1544 C.3     1  UNL1        0.0768
     14 C         142.4441  143.7083  163.3262 C.3     1  UNL1        0.0434
     15 C         142.8810  139.3248  170.4533 C.3     1  UNL1        0.0073
     16 C         142.0059  140.5420  170.4019 C.3     1  UNL1        0.0526
     17 C         140.3577  145.8433  160.6835 C.3     1  UNL1        0.0730
     18 C         140.6413  145.1412  159.3886 C.3     1  UNL1        0.0294
     19 C         139.7696  144.0036  158.9457 C.3     1  UNL1        0.0666
     20 S         139.9866  142.6298  159.5073 S.3     1  UNL1       -0.0756
     21 C         139.1839  142.1663  160.6866 C.ar    1  UNL1        0.1933
     22 N         137.7911  142.6032  161.0318 N.ar    1  UNL1       -0.1220
     23 N         137.3794  141.8915  162.2863 N.ar    1  UNL1       -0.1250
     24 C         138.5179  141.0146  162.7165 C.ar    1  UNL1        0.2029
     25 N         139.6331  141.1844  161.7279 N.ar    1  UNL1       -0.2860
     26 C         140.9639  140.4937  161.7726 C.3     1  UNL1        0.1341
     27 C         138.5376  140.1242  163.9235 C.ar    1  UNL1        0.1964
     28 O         138.4596  140.5740  165.3523 O.2     1  UNL1       -0.4283
     29 C         138.5126  139.3554  166.2255 C.ar    1  UNL1        0.2849
     30 N         138.6234  138.1525  165.3363 N.ar    1  UNL1       -0.2085
     31 C         138.6388  138.6277  163.9135 C.ar    1  UNL1        0.1001
     32 C         138.7380  137.7587  162.6949 C.3     1  UNL1        0.0556
@<TRIPOS>BOND
     1    15    16    1
     2    16     1    1
     3     1     2   ar
     4     2     3   ar
     5     3     4   ar
     6     4     5   ar
     7     5     6   ar
     8     6     7   ar
     9     7     8   ar
    10     8     9   ar
    11     6    10    1
    12    10    11    1
    13    11    12    1
    14    12    17    1
    15    17    18    1
    16    18    19    1
    17    19    20    1
    18    20    21    1
    19    21    22   ar
    20    22    23   ar
    21    23    24   ar
    22    24    27    1
    23    27    28   ar
    24    28    29   ar
    25    29    30   ar
    26    30    31   ar
    27    31    32    1
    28    24    25   ar
    29    25    26    1
    30    12    13    1
    31    13    14    1
    32     9     1   ar
    33    25    21   ar
    34     8     3   ar
    35    31    27   ar
    36    14     5    1
@<TRIPOS>MOLECULE
*****
 32 36 0 0 0
SMALL
GASTEIGER

@<TRIPOS>ATOM
      1 C         143.2674  139.4348  159.0838 C.ar    1  UNL1        0.0882
      2 N         143.5971  140.6859  159.8428 N.ar    1  UNL1       -0.2427
      3 C         143.3945  140.4091  161.3030 C.ar    1  UNL1        0.0871
      4 C         143.5656  141.2684  162.5206 C.ar    1  UNL1        0.0151
      5 C         143.2817  140.7054  163.8817 C.ar    1  UNL1       -0.0232
      6 C         142.8269  139.2833  164.0252 C.ar    1  UNL1       -0.0241
      7 C         142.6559  138.4240  162.8077 C.ar    1  UNL1        0.0035
      8 C         142.9397  138.9869  161.4466 C.ar    1  UNL1        0.0478
      9 S         142.8611  138.3848  160.0750 S.2     1  UNL1       -0.0708
     10 C         142.4924  138.5303  165.2787 C.3     1  UNL1        0.0434
     11 C         142.5301  139.0136  166.6983 C.3     1  UNL1        0.0768
     12 N         142.9116  140.3691  167.2148 N.3     1  UNL1       -0.2720
     13 C         143.3497  141.5762  166.4396 C.3     1  UNL1        0.0768
     14 C         143.5144  141.7259  164.9562 C.3     1  UNL1        0.0434
     15 C         142.2466  138.5180  156.8775 C.3     1  UNL1        0.0073
     16 C         143.3325  139.2637  157.5950 C.3     1  UNL1        0.0526
     17 C         142.8464  140.5402  168.7036 C.3     1  UNL1        0.0730
     18 C         142.0953  139.5475  169.5406 C.3     1  UNL1        0.0294
     19 C         140.6607  139.8008  169.8979 C.3     1  UNL1        0.0666
     20 S         139.8166  140.6859  169.0296 S.3     1  UNL1       -0.0756
     21 C         139.1171  140.1148  167.8318 C.ar    1  UNL1        0.1933
     22 N         138.2138  138.9173  167.8262 N.ar    1  UNL1       -0.1220
     23 N         137.7365  138.7033  166.4203 N.ar    1  UNL1       -0.1250
     24 C         138.3449  139.7686  165.5571 C.ar    1  UNL1        0.2029
     25 N         139.1982  140.6410  166.4295 N.ar    1  UNL1       -0.2860
     26 C         139.9929  141.8306  165.9786 C.3     1  UNL1        0.1341
     27 C         138.1366  139.9327  164.0808 C.ar    1  UNL1        0.1964
     28 O         137.5721  141.1438  163.3992 O.2     1  UNL1       -0.4283
     29 C         137.5429  140.8741  161.9239 C.ar    1  UNL1        0.2849
     30 N         138.0893  139.4963  161.6937 N.ar    1  UNL1       -0.2085
     31 C         138.4562  138.9145  163.0267 C.ar    1  UNL1        0.1001
     32 C         139.0403  137.5533  163.2639 C.3     1  UNL1        0.0556
@<TRIPOS>BOND
     1    15    16    1
     2    16     1    1
     3     1     2   ar
     4     2     3   ar
     5     3     4   ar
     6     4     5   ar
     7     5     6   ar
     8     6     7   ar
     9     7     8   ar
    10     8     9   ar
    11     6    10    1
    12    10    11    1
    13    11    12    1
    14    12    17    1
    15    17    18    1
    16    18    19    1
    17    19    20    1
    18    20    21    1
    19    21    22   ar
    20    22    23   ar
    21    23    24   ar
    22    24    27    1
    23    27    28   ar
    24    28    29   ar
    25    29    30   ar
    26    30    31   ar
    27    31    32    1
    28    24    25   ar
    29    25    26    1
    30    12    13    1
    31    13    14    1
    32     9     1   ar
    33    25    21   ar
    34     8     3   ar
    35    31    27   ar
    36    14     5    1
@<TRIPOS>MOLECULE
*****
 32 36 0 0 0
SMALL
GASTEIGER

@<TRIPOS>ATOM
      1 C         139.8350  140.7306  168.9137 C.ar    1  UNL1        0.0882
      2 N         139.1244  139.5944  168.2397 N.ar    1  UNL1       -0.2427
      3 C         139.2403  139.7894  166.7570 C.ar    1  UNL1        0.0871
      4 C         138.7346  138.9850  165.5963 C.ar    1  UNL1        0.0151
      5 C         139.0112  139.4374  164.1931 C.ar    1  UNL1       -0.0232
      6 C         139.7933  140.6941  163.9507 C.ar    1  UNL1       -0.0241
      7 C         140.2990  141.4985  165.1113 C.ar    1  UNL1        0.0035
      8 C         140.0225  141.0462  166.5145 C.ar    1  UNL1        0.0478
      9 S         140.3900  141.6278  167.8475 S.2     1  UNL1       -0.0708
     10 C         140.1775  141.3188  162.6421 C.3     1  UNL1        0.0434
     11 C         139.8745  140.8409  161.2529 C.3     1  UNL1        0.0768
     12 N         139.1124  139.6205  160.8292 N.3     1  UNL1       -0.2720
     13 C         138.4651  138.5764  161.6899 C.3     1  UNL1        0.0768
     14 C         138.4200  138.4949  163.1870 C.3     1  UNL1        0.0434
     15 C         141.0045  141.8745  170.9321 C.3     1  UNL1        0.0073
     16 C         139.9673  140.9339  170.3940 C.3     1  UNL1        0.0526
     17 C         138.9801  139.4172  159.3489 C.3     1  UNL1        0.0730
     18 C         139.9014  138.4720  158.6363 C.3     1  UNL1        0.0294
     19 C         140.8801  138.9962  157.6275 C.3     1  UNL1        0.0666
     20 S         142.3437  138.7065  157.7817 S.3     1  UNL1       -0.0756
     21 C         142.9575  138.6524  159.1492 C.ar    1  UNL1        0.1933
     22 N         143.3214  137.4081  159.9037 N.ar    1  UNL1       -0.1220
     23 N         143.9041  137.8197  161.2232 N.ar    1  UNL1       -0.1250
     24 C         143.9003  139.3185  161.2842 C.ar    1  UNL1        0.2029
     25 N         143.3153  139.8331  160.0024 N.ar    1  UNL1       -0.2860
     26 C         143.1220  141.2752  159.6379 C.3     1  UNL1        0.1341
     27 C         144.3947  140.1556  162.4264 C.ar    1  UNL1        0.1964
     28 O         145.3956  141.2690  162.3350 O.2     1  UNL1       -0.4283
     29 C         145.5945  141.8279  163.7128 C.ar    1  UNL1        0.2849
     30 N         144.7164  141.0599  164.6557 N.ar    1  UNL1       -0.2085
     31 C         143.9749  140.0263  163.8607 C.ar    1  UNL1        0.1001
     32 C         142.9870  139.0372  164.4046 C.3     1  UNL1        0.0556
@<TRIPOS>BOND
     1    15    16    1
     2    16     1    1
     3     1     2   ar
     4     2     3   ar
     5     3     4   ar
     6     4     5   ar
     7     5     6   ar
     8     6     7   ar
     9     7     8   ar
    10     8     9   ar
    11     6    10    1
    12    10    11    1
    13    11    12    1
    14    12    17    1
    15    17    18    1
    16    18    19    1
    17    19    20    1
    18    20    21    1
    19    21    22   ar
    20    22    23   ar
    21    23    24   ar
    22    24    27    1
    23    27    28   ar
    24    28    29   ar
    25    29    30   ar
    26    30    31   ar
    27    31    32    1
    28    24    25   ar
    29    25    26    1
    30    12    13    1
    31    13    14    1
    32     9     1   ar
    33    25    21   ar
    34     8     3   ar
    35    31    27   ar
    36    14     5    1
@<TRIPOS>MOLECULE
*****
 32 36 0 0 0
SMALL
GASTEIGER

@<TRIPOS>ATOM
      1 C         140.7780  140.1764  169.2950 C.ar    1  UNL1        0.0882
      2 N         139.4694  139.9610  168.5941 N.ar    1  UNL1       -0.2427
      3 C         139.7579  139.6847  167.1483 C.ar    1  UNL1        0.0871
      4 C         138.8588  139.3982  165.9823 C.ar    1  UNL1        0.0151
      5 C         139.4466  139.1562  164.6236 C.ar    1  UNL1       -0.0232
      6 C         140.9334  139.2008  164.4310 C.ar    1  UNL1       -0.0241
      7 C         141.8326  139.4873  165.5969 C.ar    1  UNL1        0.0035
      8 C         141.2449  139.7292  166.9556 C.ar    1  UNL1        0.0478
      9 S         141.8753  140.0331  168.2823 S.2     1  UNL1       -0.0708
     10 C         141.7200  138.9900  163.1712 C.3     1  UNL1        0.0434
     11 C         141.2138  138.6827  161.7930 C.3     1  UNL1        0.0768
     12 N         139.7962  138.5102  161.3342 N.3     1  UNL1       -0.2720
     13 C         138.5345  138.6024  162.1403 C.3     1  UNL1        0.0768
     14 C         138.3789  138.8899  163.6042 C.3     1  UNL1        0.0434
     15 C         141.7643  141.6735  171.1754 C.3     1  UNL1        0.0073
     16 C         140.9578  140.4815  170.7526 C.3     1  UNL1        0.0526
     17 C         139.6164  138.2051  159.8766 C.3     1  UNL1        0.0730
     18 C         139.5446  139.3235  158.8795 C.3     1  UNL1        0.0294
     19 C         138.3616  140.2458  158.8707 C.3     1  UNL1        0.0666
     20 S         138.5669  141.7278  158.7650 S.3     1  UNL1       -0.0756
     21 C         139.0141  142.5105  159.9640 C.ar    1  UNL1        0.1933
     22 N         138.1259  143.2811  160.8952 N.ar    1  UNL1       -0.1220
     23 N         138.9908  143.9068  161.9490 N.ar    1  UNL1       -0.1250
     24 C         140.4135  143.5228  161.6690 C.ar    1  UNL1        0.2029
     25 N         140.4279  142.6598  160.4421 N.ar    1  UNL1       -0.2860
     26 C         141.6429  142.0528  159.8054 C.3     1  UNL1        0.1341
     27 C         141.6116  143.9303  162.4743 C.ar    1  UNL1        0.1964
     28 O         142.8283  144.6339  161.9506 O.2     1  UNL1       -0.4283
     29 C         143.7720  144.8442  163.0974 C.ar    1  UNL1        0.2849
     30 N         143.1384  144.2705  164.3301 N.ar    1  UNL1       -0.2085
     31 C         141.8032  143.7057  163.9450 C.ar    1  UNL1        0.1001
     32 C         140.8304  143.0342  164.8686 C.3     1  UNL1        0.0556
@<TRIPOS>BOND
     1    15    16    1
     2    16     1    1
     3     1     2   ar
     4     2     3   ar
     5     3     4   ar
     6     4     5   ar
     7     5     6   ar
     8     6     7   ar
     9     7     8   ar
    10     8     9   ar
    11     6    10    1
    12    10    11    1
    13    11    12    1
    14    12    17    1
    15    17    18    1
    16    18    19    1
    17    19    20    1
    18    20    21    1
    19    21    22   ar
    20    22    23   ar
    21    23    24   ar
    22    24    27    1
    23    27    28   ar
    24    28    29   ar
    25    29    30   ar
    26    30    31   ar
    27    31    32    1
    28    24    25   ar
    29    25    26    1
    30    12    13    1
    31    13    14    1
    32     9     1   ar
    33    25    21   ar
    34     8     3   ar
    35    31    27   ar
    36    14     5    1
@<TRIPOS>MOLECULE
*****
 32 36 0 0 0
SMALL
GASTEIGER

@<TRIPOS>ATOM
      1 C         139.3110  139.5160  158.1524 C.ar    1  UNL1        0.0882
      2 N         139.1757  138.3276  159.0576 N.ar    1  UNL1       -0.2427
      3 C         139.1667  138.8222  160.4736 C.ar    1  UNL1        0.0871
      4 C         139.0572  138.1050  161.7866 C.ar    1  UNL1        0.0151
      5 C         139.0773  138.8821  163.0695 C.ar    1  UNL1       -0.0232
      6 C         139.2070  140.3761  163.0395 C.ar    1  UNL1       -0.0241
      7 C         139.3165  141.0932  161.7266 C.ar    1  UNL1        0.0035
      8 C         139.2964  140.3163  160.4436 C.ar    1  UNL1        0.0478
      9 S         139.3856  140.7450  159.0090 S.2     1  UNL1       -0.0708
     10 C         139.2475  141.3347  164.1925 C.3     1  UNL1        0.0434
     11 C         139.1683  141.0359  165.6604 C.3     1  UNL1        0.0768
     12 N         139.0290  139.7048  166.3376 N.3     1  UNL1       -0.2720
     13 C         138.9346  138.3437  165.7144 C.3     1  UNL1        0.0768
     14 C         138.9561  137.9775  164.2599 C.3     1  UNL1        0.0434
     15 C         140.3332  138.5741  155.9573 C.3     1  UNL1        0.0073
     16 C         139.3626  139.4814  156.6536 C.3     1  UNL1        0.0526
     17 C         138.9774  139.7394  167.8363 C.3     1  UNL1        0.0730
     18 C         140.0394  140.4664  168.6069 C.3     1  UNL1        0.0294
     19 C         141.1611  139.7007  169.2437 C.3     1  UNL1        0.0666
     20 S         142.4987  139.6298  168.5688 S.3     1  UNL1       -0.0756
     21 C         142.6074  139.8701  167.0921 C.ar    1  UNL1        0.1933
     22 N         142.4011  138.8469  166.0148 N.ar    1  UNL1       -0.1220
     23 N         142.6077  139.5201  164.6904 N.ar    1  UNL1       -0.1250
     24 C         142.9417  140.9594  164.9492 C.ar    1  UNL1        0.2029
     25 N         142.9416  141.1757  166.4336 N.ar    1  UNL1       -0.2860
     26 C         143.2256  142.4703  167.1360 C.3     1  UNL1        0.1341
     27 C         143.2260  141.9998  163.9067 C.ar    1  UNL1        0.1964
     28 O         142.2140  142.8956  163.2561 O.2     1  UNL1       -0.4283
     29 C         142.9348  143.7765  162.2791 C.ar    1  UNL1        0.2849
     30 N         144.3923  143.4250  162.3258 N.ar    1  UNL1       -0.2085
     31 C         144.5723  142.3269  163.3318 C.ar    1  UNL1        0.1001
     32 C         145.8706  141.6712  163.6983 C.3     1  UNL1        0.0556
@<TRIPOS>BOND
     1    15    16    1
     2    16     1    1
     3     1     2   ar
     4     2     3   ar
     5     3     4   ar
     6     4     5   ar
     7     5     6   ar
     8     6     7   ar
     9     7     8   ar
    10     8     9   ar
    11     6    10    1
    12    10    11    1
    13    11    12    1
    14    12    17    1
    15    17    18    1
    16    18    19    1
    17    19    20    1
    18    20    21    1
    19    21    22   ar
    20    22    23   ar
    21    23    24   ar
    22    24    27    1
    23    27    28   ar
    24    28    29   ar
    25    29    30   ar
    26    30    31   ar
    27    31    32    1
    28    24    25   ar
    29    25    26    1
    30    12    13    1
    31    13    14    1
    32     9     1   ar
    33    25    21   ar
    34     8     3   ar
    35    31    27   ar
    36    14     5    1
@<TRIPOS>MOLECULE
*****
 32 36 0 0 0
SMALL
GASTEIGER

@<TRIPOS>ATOM
      1 C         141.7344  141.4474  169.1700 C.ar    1  UNL1        0.0882
      2 N         140.4915  142.1135  168.6584 N.ar    1  UNL1       -0.2427
      3 C         140.7658  142.6000  167.2664 C.ar    1  UNL1        0.0871
      4 C         139.9120  143.3286  166.2713 C.ar    1  UNL1        0.0151
      5 C         140.4705  143.6917  164.9273 C.ar    1  UNL1       -0.0232
      6 C         141.8828  143.3263  164.5785 C.ar    1  UNL1       -0.0241
      7 C         142.7367  142.5978  165.5735 C.ar    1  UNL1        0.0035
      8 C         142.1782  142.2346  166.9175 C.ar    1  UNL1        0.0478
      9 S         142.7768  141.5222  168.0940 S.2     1  UNL1       -0.0708
     10 C         142.6302  143.5913  163.3051 C.3     1  UNL1        0.0434
     11 C         142.1496  144.2872  162.0662 C.3     1  UNL1        0.0768
     12 N         140.8032  144.8898  161.7946 N.3     1  UNL1       -0.2720
     13 C         139.6047  144.9456  162.6948 C.3     1  UNL1        0.0768
     14 C         139.4566  144.4124  164.0890 C.3     1  UNL1        0.0434
     15 C         142.9728  139.7863  170.7375 C.3     1  UNL1        0.0073
     16 C         141.9049  140.8170  170.5204 C.3     1  UNL1        0.0526
     17 C         140.6327  145.5201  160.4442 C.3     1  UNL1        0.0730
     18 C         140.1249  144.7026  159.2936 C.3     1  UNL1        0.0294
     19 C         141.0423  143.7472  158.5896 C.3     1  UNL1        0.0666
     20 S         140.7367  142.2788  158.5861 S.3     1  UNL1       -0.0756
     21 C         140.9805  141.4590  159.8185 C.ar    1  UNL1        0.1933
     22 N         142.2630  140.7699  160.1795 N.ar    1  UNL1       -0.1220
     23 N         142.0598  140.0695  161.4903 N.ar    1  UNL1       -0.1250
     24 C         140.6517  140.3257  161.9393 C.ar    1  UNL1        0.2029
     25 N         139.9846  141.1845  160.9061 N.ar    1  UNL1       -0.2860
     26 C         138.5701  141.6815  160.9524 C.3     1  UNL1        0.1341
     27 C         140.0213  139.8132  163.2002 C.ar    1  UNL1        0.1964
     28 O         140.4246  140.1766  164.5984 O.2     1  UNL1       -0.4283
     29 C         139.5295  139.4352  165.5467 C.ar    1  UNL1        0.2849
     30 N         138.5729  138.6136  164.7345 N.ar    1  UNL1       -0.2085
     31 C         138.8768  138.8472  163.2842 C.ar    1  UNL1        0.1001
     32 C         138.1618  138.2241  162.1221 C.3     1  UNL1        0.0556
@<TRIPOS>BOND
     1    15    16    1
     2    16     1    1
     3     1     2   ar
     4     2     3   ar
     5     3     4   ar
     6     4     5   ar
     7     5     6   ar
     8     6     7   ar
     9     7     8   ar
    10     8     9   ar
    11     6    10    1
    12    10    11    1
    13    11    12    1
    14    12    17    1
    15    17    18    1
    16    18    19    1
    17    19    20    1
    18    20    21    1
    19    21    22   ar
    20    22    23   ar
    21    23    24   ar
    22    24    27    1
    23    27    28   ar
    24    28    29   ar
    25    29    30   ar
    26    30    31   ar
    27    31    32    1
    28    24    25   ar
    29    25    26    1
    30    12    13    1
    31    13    14    1
    32     9     1   ar
    33    25    21   ar
    34     8     3   ar
    35    31    27   ar
    36    14     5    1
@<TRIPOS>MOLECULE
*****
 32 36 0 0 0
SMALL
GASTEIGER

@<TRIPOS>ATOM
      1 C         140.2753  140.0524  168.4268 C.ar    1  UNL1        0.0882
      2 N         141.6817  139.8680  167.9389 N.ar    1  UNL1       -0.2427
      3 C         141.6245  139.5169  166.4817 C.ar    1  UNL1        0.0871
      4 C         142.6990  139.2226  165.4773 C.ar    1  UNL1        0.0151
      5 C         142.3317  138.8958  164.0601 C.ar    1  UNL1       -0.0232
      6 C         140.8900  138.8632  163.6475 C.ar    1  UNL1       -0.0241
      7 C         139.8155  139.1574  164.6518 C.ar    1  UNL1        0.0035
      8 C         140.1827  139.4843  166.0690 C.ar    1  UNL1        0.0478
      9 S         139.3489  139.8152  167.2712 S.2     1  UNL1       -0.0708
     10 C         140.3103  138.5624  162.2970 C.3     1  UNL1        0.0434
     11 C         141.0293  138.2201  161.0258 C.3     1  UNL1        0.0768
     12 N         142.5053  138.0939  160.7911 N.3     1  UNL1       -0.2720
     13 C         143.6272  138.2789  161.7695 C.3     1  UNL1        0.0768
     14 C         143.5499  138.6357  163.2244 C.3     1  UNL1        0.0434
     15 C         138.4317  140.2861  170.2424 C.3     1  UNL1        0.0073
     16 C         139.8670  140.4110  169.8249 C.3     1  UNL1        0.0526
     17 C         142.9136  137.7353  159.3930 C.3     1  UNL1        0.0730
     18 C         141.9945  138.0290  158.2444 C.3     1  UNL1        0.0294
     19 C         142.2738  139.1916  157.3386 C.3     1  UNL1        0.0666
     20 S         141.8913  140.5794  157.7599 S.3     1  UNL1       -0.0756
     21 C         142.8035  141.3716  158.6489 C.ar    1  UNL1        0.1933
     22 N         144.2376  141.7077  158.3656 N.ar    1  UNL1       -0.1220
     23 N         144.7622  142.5105  159.5189 N.ar    1  UNL1       -0.1250
     24 C         143.6523  142.6706  160.5151 C.ar    1  UNL1        0.2029
     25 N         142.4417  141.9667  159.9774 N.ar    1  UNL1       -0.2860
     26 C         141.1042  141.8741  160.6502 C.3     1  UNL1        0.1341
     27 C         143.7378  143.4055  161.8199 C.ar    1  UNL1        0.1964
     28 O         143.0184  144.6755  162.1653 O.2     1  UNL1       -0.4283
     29 C         143.3938  145.0544  163.5673 C.ar    1  UNL1        0.2849
     30 N         144.3453  144.0186  164.0884 N.ar    1  UNL1       -0.2085
     31 C         144.5580  142.9995  163.0084 C.ar    1  UNL1        0.1001
     32 C         145.4365  141.7872  163.1008 C.3     1  UNL1        0.0556
@<TRIPOS>BOND
     1    15    16    1
     2    16     1    1
     3     1     2   ar
     4     2     3   ar
     5     3     4   ar
     6     4     5   ar
     7     5     6   ar
     8     6     7   ar
     9     7     8   ar
    10     8     9   ar
    11     6    10    1
    12    10    11    1
    13    11    12    1
    14    12    17    1
    15    17    18    1
    16    18    19    1
    17    19    20    1
    18    20    21    1
    19    21    22   ar
    20    22    23   ar
    21    23    24   ar
    22    24    27    1
    23    27    28   ar
    24    28    29   ar
    25    29    30   ar
    26    30    31   ar
    27    31    32    1
    28    24    25   ar
    29    25    26    1
    30    12    13    1
    31    13    14    1
    32     9     1   ar
    33    25    21   ar
    34     8     3   ar
    35    31    27   ar
    36    14     5    1
@<TRIPOS>MOLECULE
*****
 32 36 0 0 0
SMALL
GASTEIGER

@<TRIPOS>ATOM
      1 C         140.3135  145.9493  156.9180 C.ar    1  UNL1        0.0882
      2 N         139.9837  145.9935  158.3806 N.ar    1  UNL1       -0.2427
      3 C         140.9675  145.1226  159.1041 C.ar    1  UNL1        0.0871
      4 C         141.1306  144.7847  160.5565 C.ar    1  UNL1        0.0151
      5 C         142.2316  143.8643  160.9934 C.ar    1  UNL1       -0.0232
      6 C         143.1693  143.2819  159.9780 C.ar    1  UNL1       -0.0241
      7 C         143.0063  143.6197  158.5256 C.ar    1  UNL1        0.0035
      8 C         141.9054  144.5401  158.0887 C.ar    1  UNL1        0.0478
      9 S         141.5011  145.0510  156.7376 S.2     1  UNL1       -0.0708
     10 C         144.3247  142.3507  160.1976 C.3     1  UNL1        0.0434
     11 C         144.8274  141.7720  161.4870 C.3     1  UNL1        0.0768
     12 N         144.2991  141.9817  162.8750 N.3     1  UNL1       -0.2720
     13 C         143.1375  142.8217  163.3167 C.3     1  UNL1        0.0768
     14 C         142.2173  143.6596  162.4793 C.3     1  UNL1        0.0434
     15 C         140.3213  147.1225  154.5998 C.3     1  UNL1        0.0073
     16 C         139.5837  146.6758  155.8272 C.3     1  UNL1        0.0526
     17 C         145.0288  141.2552  163.9658 C.3     1  UNL1        0.0730
     18 C         144.8858  139.7683  164.1027 C.3     1  UNL1        0.0294
     19 C         143.6746  139.0772  163.5499 C.3     1  UNL1        0.0666
     20 S         142.4275  138.9737  164.3767 S.3     1  UNL1       -0.0756
     21 C         142.4596  139.3383  165.8314 C.ar    1  UNL1        0.1933
     22 N         143.2276  138.6228  166.9029 N.ar    1  UNL1       -0.1220
     23 N         142.9721  139.3247  168.2037 N.ar    1  UNL1       -0.1250
     24 C         142.0461  140.4741  167.9361 C.ar    1  UNL1        0.2029
     25 N         141.7294  140.4825  166.4699 N.ar    1  UNL1       -0.2860
     26 C         140.8388  141.4629  165.7659 C.3     1  UNL1        0.1341
     27 C         141.5279  141.4446  168.9556 C.ar    1  UNL1        0.1964
     28 O         140.0856  141.6879  169.2881 O.2     1  UNL1       -0.4283
     29 C         140.0273  142.7359  170.3596 C.ar    1  UNL1        0.2849
     30 N         141.4335  143.1404  170.6894 N.ar    1  UNL1       -0.2085
     31 C         142.3610  142.3423  169.8217 C.ar    1  UNL1        0.1001
     32 C         143.8586  142.4271  169.8203 C.3     1  UNL1        0.0556
@<TRIPOS>BOND
     1    15    16    1
     2    16     1    1
     3     1     2   ar
     4     2     3   ar
     5     3     4   ar
     6     4     5   ar
     7     5     6   ar
     8     6     7   ar
     9     7     8   ar
    10     8     9   ar
    11     6    10    1
    12    10    11    1
    13    11    12    1
    14    12    17    1
    15    17    18    1
    16    18    19    1
    17    19    20    1
    18    20    21    1
    19    21    22   ar
    20    22    23   ar
    21    23    24   ar
    22    24    27    1
    23    27    28   ar
    24    28    29   ar
    25    29    30   ar
    26    30    31   ar
    27    31    32    1
    28    24    25   ar
    29    25    26    1
    30    12    13    1
    31    13    14    1
    32     9     1   ar
    33    25    21   ar
    34     8     3   ar
    35    31    27   ar
    36    14     5    1
@<TRIPOS>MOLECULE
*****
 32 36 0 0 0
SMALL
GASTEIGER

@<TRIPOS>ATOM
      1 C         140.0704  140.2191  168.7077 C.ar    1  UNL1        0.0882
      2 N         141.5382  140.2359  168.3987 N.ar    1  UNL1       -0.2427
      3 C         141.7012  140.0905  166.9147 C.ar    1  UNL1        0.0871
      4 C         142.9179  140.0415  166.0387 C.ar    1  UNL1        0.0151
      5 C         142.7674  139.8857  164.5543 C.ar    1  UNL1       -0.0232
      6 C         141.4005  139.7790  163.9462 C.ar    1  UNL1       -0.0241
      7 C         140.1839  139.8281  164.8221 C.ar    1  UNL1        0.0035
      8 C         140.3342  139.9838  166.3065 C.ar    1  UNL1        0.0478
      9 S         139.3264  140.0633  167.4146 S.2     1  UNL1       -0.0708
     10 C         141.0294  139.6200  162.5014 C.3     1  UNL1        0.0434
     11 C         141.9339  139.5285  161.3082 C.3     1  UNL1        0.0768
     12 N         143.4325  139.5733  161.2650 N.3     1  UNL1       -0.2720
     13 C         144.3970  139.7208  162.4043 C.3     1  UNL1        0.0768
     14 C         144.1011  139.8598  163.8682 C.3     1  UNL1        0.0434
     15 C         138.0207  139.9517  170.2815 C.3     1  UNL1        0.0073
     16 C         139.4548  140.3374  170.0704 C.3     1  UNL1        0.0526
     17 C         144.0481  139.4551  159.9023 C.3     1  UNL1        0.0730
     18 C         143.4861  140.2407  158.7546 C.3     1  UNL1        0.0294
     19 C         144.2746  141.3706  158.1616 C.3     1  UNL1        0.0666
     20 S         143.9711  142.7854  158.5567 S.3     1  UNL1       -0.0756
     21 C         143.1862  143.0637  159.8043 C.ar    1  UNL1        0.1933
     22 N         143.7585  143.3271  161.1656 N.ar    1  UNL1       -0.1220
     23 N         142.6173  143.5537  162.1123 N.ar    1  UNL1       -0.1250
     24 C         141.3397  143.4304  161.3361 C.ar    1  UNL1        0.2029
     25 N         141.6913  143.1275  159.9096 N.ar    1  UNL1       -0.2860
     26 C         140.7187  142.9242  158.7859 C.3     1  UNL1        0.1341
     27 C         139.9537  143.5830  161.8892 C.ar    1  UNL1        0.1964
     28 O         139.0359  142.4660  162.2887 O.2     1  UNL1       -0.4283
     29 C         137.7572  143.0721  162.7863 C.ar    1  UNL1        0.2849
     30 N         137.8848  144.5638  162.6942 N.ar    1  UNL1       -0.2085
     31 C         139.2423  144.8796  162.1398 C.ar    1  UNL1        0.1001
     32 C         139.7919  146.2512  161.8814 C.3     1  UNL1        0.0556
@<TRIPOS>BOND
     1    15    16    1
     2    16     1    1
     3     1     2   ar
     4     2     3   ar
     5     3     4   ar
     6     4     5   ar
     7     5     6   ar
     8     6     7   ar
     9     7     8   ar
    10     8     9   ar
    11     6    10    1
    12    10    11    1
    13    11    12    1
    14    12    17    1
    15    17    18    1
    16    18    19    1
    17    19    20    1
    18    20    21    1
    19    21    22   ar
    20    22    23   ar
    21    23    24   ar
    22    24    27    1
    23    27    28   ar
    24    28    29   ar
    25    29    30   ar
    26    30    31   ar
    27    31    32    1
    28    24    25   ar
    29    25    26    1
    30    12    13    1
    31    13    14    1
    32     9     1   ar
    33    25    21   ar
    34     8     3   ar
    35    31    27   ar
    36    14     5    1
