@<TRIPOS>MOLECULE
*****
 33 37 0 0 0
SMALL
GASTEIGER

@<TRIPOS>ATOM
      1 N         140.0430  138.7833  161.4926 N.3     1  UNL1       -0.2695
      2 C         139.9779  138.1972  162.8719 C.3     1  UNL1        0.0939
      3 C         141.1758  138.2640  163.7723 C.3     1  UNL1        0.1107
      4 N         142.4386  138.9167  163.2936 N.am    1  UNL1       -0.2764
      5 C         143.6363  138.9834  164.1941 C.2     1  UNL1        0.2318
      6 O         144.8991  139.6362  163.7153 O.2     1  UNL1       -0.2744
      7 C         142.5035  139.5028  161.9143 C.3     1  UNL1        0.1107
      8 C         141.3058  139.4360  161.0139 C.3     1  UNL1        0.0939
      9 C         138.8452  138.7166  160.5921 C.3     1  UNL1        0.0769
     10 C         137.8069  139.7979  160.6438 C.3     1  UNL1        0.0433
     11 C         139.2421  142.2432  159.6633 C.3     1  UNL1        0.0305
     12 C         138.7113  142.1968  161.0656 C.ar    1  UNL1       -0.0260
     13 C         137.9937  140.9742  161.5558 C.ar    1  UNL1       -0.0249
     14 C         137.4630  140.9277  162.9579 C.ar    1  UNL1       -0.0043
     15 C         137.6497  142.1039  163.8699 C.ar    1  UNL1        0.0059
     16 C         138.3673  143.3265  163.3797 C.ar    1  UNL1        0.0748
     17 C         138.8981  143.3730  161.9776 C.ar    1  UNL1        0.0233
     18 C         139.5587  144.7045  161.7758 C.3     1  UNL1        0.2352
     19 O         139.4362  145.4809  163.0534 O.3     1  UNL1       -0.4404
     20 C         138.6999  144.6293  164.0446 C.2     1  UNL1        0.3413
     21 O         138.3564  145.0131  165.4534 O.2     1  UNL1       -0.2449
     22 C         143.5713  138.3974  165.5733 C.3     1  UNL1        0.1325
     23 C         142.9395  139.1751  166.6896 C.ar    1  UNL1        0.0874
     24 C         142.0853  140.3691  166.3819 C.ar    1  UNL1        0.1157
     25 N         141.4534  141.1469  167.4982 N.ar    1  UNL1       -0.2223
     26 C         141.6759  140.7307  168.9220 C.ar    1  UNL1        0.1865
     27 C         142.5302  139.5367  169.2295 C.ar    1  UNL1        0.1373
     28 N         143.1620  138.7589  168.1134 N.ar    1  UNL1       -0.2429
     29 N         141.0441  141.5084  170.0382 N.ar    1  UNL1       -0.1693
     30 C         140.1101  142.6719  169.8837 C.ar    1  UNL1        0.2273
     31 N         139.7242  143.1417  171.2550 N.ar    1  UNL1       -0.1044
     32 N         140.4198  142.2686  172.2570 N.ar    1  UNL1       -0.0222
     33 N         141.2355  141.2592  171.5049 N.ar    1  UNL1       -0.0371
@<TRIPOS>BOND
     1    11    12    1
     2    12    13   ar
     3    13    10    1
     4    10     9    1
     5     9     1    1
     6     1     2    1
     7     2     3    1
     8     3     4    1
     9     4     5   am
    10     5     6    2
    11     5    22    1
    12    22    23    1
    13    23    24   ar
    14    24    25   ar
    15    25    26   ar
    16    26    29    1
    17    29    30   ar
    18    30    31   ar
    19    31    32   ar
    20    32    33   ar
    21    26    27   ar
    22    27    28   ar
    23     4     7    1
    24     7     8    1
    25    13    14   ar
    26    14    15   ar
    27    15    16   ar
    28    16    17   ar
    29    17    18    1
    30    18    19    1
    31    19    20    1
    32    20    21    2
    33    17    12   ar
    34     8     1    1
    35    20    16    1
    36    28    23   ar
    37    33    29   ar
@<TRIPOS>MOLECULE
*****
 33 37 0 0 0
SMALL
GASTEIGER

@<TRIPOS>ATOM
      1 N         141.9382  138.6401  160.4449 N.3     1  UNL1       -0.2695
      2 C         141.5953  137.8975  161.7023 C.3     1  UNL1        0.0939
      3 C         142.3816  138.1426  162.9561 C.3     1  UNL1        0.1107
      4 N         143.5107  139.1301  162.9524 N.am    1  UNL1       -0.2764
      5 C         144.2969  139.3750  164.2061 C.2     1  UNL1        0.2318
      6 O         145.4260  140.3625  164.2024 O.2     1  UNL1       -0.2744
      7 C         143.8535  139.8726  161.6949 C.3     1  UNL1        0.1107
      8 C         143.0672  139.6276  160.4412 C.3     1  UNL1        0.0939
      9 C         141.1519  138.3951  159.1912 C.3     1  UNL1        0.0769
     10 C         139.7622  138.9437  159.0582 C.3     1  UNL1        0.0433
     11 C         138.0856  138.6142  161.5241 C.3     1  UNL1        0.0305
     12 C         138.5137  139.9833  161.0858 C.ar    1  UNL1       -0.0260
     13 C         139.3520  140.1482  159.8528 C.ar    1  UNL1       -0.0249
     14 C         139.7801  141.5172  159.4144 C.ar    1  UNL1       -0.0043
     15 C         139.3700  142.7216  160.2089 C.ar    1  UNL1        0.0059
     16 C         138.5318  142.5568  161.4419 C.ar    1  UNL1        0.0748
     17 C         138.1036  141.1877  161.8803 C.ar    1  UNL1        0.0233
     18 C         137.2858  141.3354  163.1290 C.3     1  UNL1        0.2352
     19 O         137.2086  142.7959  163.4624 O.3     1  UNL1       -0.4404
     20 C         137.9786  143.5508  162.4197 C.2     1  UNL1        0.3413
     21 O         138.1630  145.0383  162.3645 O.2     1  UNL1       -0.2449
     22 C         143.9541  138.6325  165.4635 C.3     1  UNL1        0.1325
     23 C         143.2523  139.3400  166.5846 C.ar    1  UNL1        0.0874
     24 C         142.6040  140.6708  166.3422 C.ar    1  UNL1        0.1157
     25 N         141.9022  141.3785  167.4634 N.ar    1  UNL1       -0.2223
     26 C         141.8487  140.7553  168.8267 C.ar    1  UNL1        0.1865
     27 C         142.4971  139.4245  169.0690 C.ar    1  UNL1        0.1373
     28 N         143.1988  138.7169  167.9480 N.ar    1  UNL1       -0.2429
     29 N         141.1470  141.4629  169.9478 N.ar    1  UNL1       -0.1693
     30 C         140.0968  142.5237  169.8006 C.ar    1  UNL1        0.2273
     31 N         139.6730  142.9503  171.1748 N.ar    1  UNL1       -0.1044
     32 N         140.4613  142.1531  172.1714 N.ar    1  UNL1       -0.0222
     33 N         141.3723  141.2339  171.4130 N.ar    1  UNL1       -0.0371
@<TRIPOS>BOND
     1    11    12    1
     2    12    13   ar
     3    13    10    1
     4    10     9    1
     5     9     1    1
     6     1     2    1
     7     2     3    1
     8     3     4    1
     9     4     5   am
    10     5     6    2
    11     5    22    1
    12    22    23    1
    13    23    24   ar
    14    24    25   ar
    15    25    26   ar
    16    26    29    1
    17    29    30   ar
    18    30    31   ar
    19    31    32   ar
    20    32    33   ar
    21    26    27   ar
    22    27    28   ar
    23     4     7    1
    24     7     8    1
    25    13    14   ar
    26    14    15   ar
    27    15    16   ar
    28    16    17   ar
    29    17    18    1
    30    18    19    1
    31    19    20    1
    32    20    21    2
    33    17    12   ar
    34     8     1    1
    35    20    16    1
    36    28    23   ar
    37    33    29   ar
@<TRIPOS>MOLECULE
*****
 33 37 0 0 0
SMALL
GASTEIGER

@<TRIPOS>ATOM
      1 N         142.2088  139.7181  166.1158 N.3     1  UNL1       -0.2695
      2 C         141.9928  138.5032  165.2629 C.3     1  UNL1        0.0939
      3 C         142.6222  138.4195  163.9039 C.3     1  UNL1        0.1107
      4 N         143.4674  139.5506  163.3977 N.am    1  UNL1       -0.2764
      5 C         144.0966  139.4668  162.0387 C.2     1  UNL1        0.2318
      6 O         144.9418  140.5979  161.5325 O.2     1  UNL1       -0.2744
      7 C         143.6833  140.7655  164.2506 C.3     1  UNL1        0.1107
      8 C         143.0540  140.8492  165.6096 C.3     1  UNL1        0.0939
      9 C         141.5795  139.8019  167.4748 C.3     1  UNL1        0.0769
     10 C         140.3229  140.5970  167.6718 C.3     1  UNL1        0.0433
     11 C         138.4485  139.3155  165.7109 C.3     1  UNL1        0.0305
     12 C         138.8215  140.7604  165.5576 C.ar    1  UNL1       -0.0260
     13 C         139.7587  141.4011  166.5381 C.ar    1  UNL1       -0.0249
     14 C         140.1317  142.8458  166.3848 C.ar    1  UNL1       -0.0043
     15 C         139.5675  143.6499  165.2512 C.ar    1  UNL1        0.0059
     16 C         138.6304  143.0093  164.2708 C.ar    1  UNL1        0.0748
     17 C         138.2574  141.5645  164.4240 C.ar    1  UNL1        0.0233
     18 C         137.3178  141.2077  163.3105 C.3     1  UNL1        0.2352
     19 O         137.1101  142.4320  162.4691 O.3     1  UNL1       -0.4404
     20 C         137.9213  143.5454  163.0626 C.2     1  UNL1        0.3413
     21 O         138.0082  144.9487  162.5397 O.2     1  UNL1       -0.2449
     22 C         143.8807  138.2519  161.1858 C.3     1  UNL1        0.1325
     23 C         142.8132  138.2555  160.1321 C.ar    1  UNL1        0.0874
     24 C         141.3786  138.4617  160.5187 C.ar    1  UNL1        0.1157
     25 N         140.3109  138.4653  159.4650 N.ar    1  UNL1       -0.2223
     26 C         140.6779  138.2626  158.0247 C.ar    1  UNL1        0.1865
     27 C         142.1125  138.0563  157.6382 C.ar    1  UNL1        0.1373
     28 N         143.1802  138.0528  158.6919 N.ar    1  UNL1       -0.2429
     29 N         139.6104  138.2662  156.9710 N.ar    1  UNL1       -0.1693
     30 C         139.3076  137.1474  156.0189 C.ar    1  UNL1        0.2273
     31 N         138.1683  137.5790  155.1439 N.ar    1  UNL1       -0.1044
     32 N         137.7668  138.9645  155.5553 N.ar    1  UNL1       -0.0222
     33 N         138.6582  139.3892  156.6845 N.ar    1  UNL1       -0.0371
@<TRIPOS>BOND
     1    11    12    1
     2    12    13   ar
     3    13    10    1
     4    10     9    1
     5     9     1    1
     6     1     2    1
     7     2     3    1
     8     3     4    1
     9     4     5   am
    10     5     6    2
    11     5    22    1
    12    22    23    1
    13    23    24   ar
    14    24    25   ar
    15    25    26   ar
    16    26    29    1
    17    29    30   ar
    18    30    31   ar
    19    31    32   ar
    20    32    33   ar
    21    26    27   ar
    22    27    28   ar
    23     4     7    1
    24     7     8    1
    25    13    14   ar
    26    14    15   ar
    27    15    16   ar
    28    16    17   ar
    29    17    18    1
    30    18    19    1
    31    19    20    1
    32    20    21    2
    33    17    12   ar
    34     8     1    1
    35    20    16    1
    36    28    23   ar
    37    33    29   ar
@<TRIPOS>MOLECULE
*****
 33 37 0 0 0
SMALL
GASTEIGER

@<TRIPOS>ATOM
      1 N         139.7219  142.5462  160.7904 N.3     1  UNL1       -0.2695
      2 C         138.8205  142.6648  161.9835 C.3     1  UNL1        0.0939
      3 C         138.5485  141.4639  162.8402 C.3     1  UNL1        0.1107
      4 N         139.1779  140.1445  162.5039 N.am    1  UNL1       -0.2764
      5 C         138.9058  138.9437  163.3606 C.2     1  UNL1        0.2318
      6 O         139.5352  137.6243  163.0243 O.2     1  UNL1       -0.2744
      7 C         140.0792  140.0260  161.3107 C.3     1  UNL1        0.1107
      8 C         140.3512  141.2268  160.4540 C.3     1  UNL1        0.0939
      9 C         139.9939  143.7470  159.9336 C.3     1  UNL1        0.0769
     10 C         141.1865  144.6129  160.2127 C.3     1  UNL1        0.0433
     11 C         143.5052  142.7173  160.0362 C.3     1  UNL1        0.0305
     12 C         143.1954  143.4046  161.3330 C.ar    1  UNL1       -0.0260
     13 C         142.0361  144.3524  161.4213 C.ar    1  UNL1       -0.0249
     14 C         141.7263  145.0397  162.7180 C.ar    1  UNL1       -0.0043
     15 C         142.5758  144.7793  163.9265 C.ar    1  UNL1        0.0059
     16 C         143.7351  143.8316  163.8383 C.ar    1  UNL1        0.0748
     17 C         144.0449  143.1442  162.5415 C.ar    1  UNL1        0.0233
     18 C         145.2436  142.2684  162.7559 C.3     1  UNL1        0.2352
     19 O         145.6747  142.4145  164.1852 O.3     1  UNL1       -0.4404
     20 C         144.7424  143.3805  164.8542 C.2     1  UNL1        0.3413
     21 O         144.8062  143.8187  166.2873 O.2     1  UNL1       -0.2449
     22 C         138.0045  139.0623  164.5537 C.3     1  UNL1        0.1325
     23 C         138.5577  139.5269  165.8683 C.ar    1  UNL1        0.0874
     24 C         138.0279  138.9540  167.1494 C.ar    1  UNL1        0.1157
     25 N         138.5811  139.4187  168.4641 N.ar    1  UNL1       -0.2223
     26 C         139.6640  140.4561  168.4975 C.ar    1  UNL1        0.1865
     27 C         140.1937  141.0289  167.2164 C.ar    1  UNL1        0.1373
     28 N         139.6406  140.5643  165.9018 N.ar    1  UNL1       -0.2429
     29 N         140.2172  140.9207  169.8121 N.ar    1  UNL1       -0.1693
     30 C         141.4511  140.3958  170.4844 C.ar    1  UNL1        0.2273
     31 N         141.6300  141.1426  171.7729 N.ar    1  UNL1       -0.1044
     32 N         140.5068  142.1290  171.8970 N.ar    1  UNL1       -0.0222
     33 N         139.6336  141.9918  170.6851 N.ar    1  UNL1       -0.0371
@<TRIPOS>BOND
     1    11    12    1
     2    12    13   ar
     3    13    10    1
     4    10     9    1
     5     9     1    1
     6     1     2    1
     7     2     3    1
     8     3     4    1
     9     4     5   am
    10     5     6    2
    11     5    22    1
    12    22    23    1
    13    23    24   ar
    14    24    25   ar
    15    25    26   ar
    16    26    29    1
    17    29    30   ar
    18    30    31   ar
    19    31    32   ar
    20    32    33   ar
    21    26    27   ar
    22    27    28   ar
    23     4     7    1
    24     7     8    1
    25    13    14   ar
    26    14    15   ar
    27    15    16   ar
    28    16    17   ar
    29    17    18    1
    30    18    19    1
    31    19    20    1
    32    20    21    2
    33    17    12   ar
    34     8     1    1
    35    20    16    1
    36    28    23   ar
    37    33    29   ar
@<TRIPOS>MOLECULE
*****
 33 37 0 0 0
SMALL
GASTEIGER

@<TRIPOS>ATOM
      1 N         142.4001  142.2060  159.8230 N.3     1  UNL1       -0.2695
      2 C         141.9934  140.9740  160.5759 C.3     1  UNL1        0.0939
      3 C         142.8353  140.4788  161.7144 C.3     1  UNL1        0.1107
      4 N         144.0837  141.2155  162.1001 N.am    1  UNL1       -0.2764
      5 C         144.9254  140.7202  163.2385 C.2     1  UNL1        0.2318
      6 O         146.1738  141.4569  163.6242 O.2     1  UNL1       -0.2744
      7 C         144.4903  142.4475  161.3471 C.3     1  UNL1        0.1107
      8 C         143.6485  142.9427  160.2087 C.3     1  UNL1        0.0939
      9 C         141.5584  142.7013  158.6845 C.3     1  UNL1        0.0769
     10 C         140.4055  143.6235  158.9499 C.3     1  UNL1        0.0433
     11 C         138.4101  141.7436  160.1685 C.3     1  UNL1        0.0305
     12 C         138.9313  142.9033  160.9645 C.ar    1  UNL1       -0.0260
     13 C         139.9290  143.8433  160.3552 C.ar    1  UNL1       -0.0249
     14 C         140.4501  145.0029  161.1511 C.ar    1  UNL1       -0.0043
     15 C         139.9736  145.2227  162.5563 C.ar    1  UNL1        0.0059
     16 C         138.9759  144.2829  163.1656 C.ar    1  UNL1        0.0748
     17 C         138.4548  143.1231  162.3697 C.ar    1  UNL1        0.0233
     18 C         137.4842  142.3694  163.2298 C.3     1  UNL1        0.2352
     19 O         137.4056  143.0632  164.5574 O.3     1  UNL1       -0.4404
     20 C         138.3275  144.2458  164.5177 C.2     1  UNL1        0.3413
     21 O         138.5601  145.2202  165.6341 O.2     1  UNL1       -0.2449
     22 C         144.5187  139.4882  163.9914 C.3     1  UNL1        0.1325
     23 C         143.6398  139.6047  165.2013 C.ar    1  UNL1        0.0874
     24 C         143.8586  138.6992  166.3771 C.ar    1  UNL1        0.1157
     25 N         142.9797  138.8156  167.5871 N.ar    1  UNL1       -0.2223
     26 C         141.8821  139.8374  167.6213 C.ar    1  UNL1        0.1865
     27 C         141.6634  140.7428  166.4455 C.ar    1  UNL1        0.1373
     28 N         142.5422  140.6264  165.2355 N.ar    1  UNL1       -0.2429
     29 N         141.0032  139.9539  168.8313 N.ar    1  UNL1       -0.1693
     30 C         141.4656  140.2025  170.2364 C.ar    1  UNL1        0.2273
     31 N         140.2557  140.2444  171.1219 N.ar    1  UNL1       -0.1044
     32 N         139.0454  140.0217  170.2642 N.ar    1  UNL1       -0.0222
     33 N         139.5074  139.8422  168.8485 N.ar    1  UNL1       -0.0371
@<TRIPOS>BOND
     1    11    12    1
     2    12    13   ar
     3    13    10    1
     4    10     9    1
     5     9     1    1
     6     1     2    1
     7     2     3    1
     8     3     4    1
     9     4     5   am
    10     5     6    2
    11     5    22    1
    12    22    23    1
    13    23    24   ar
    14    24    25   ar
    15    25    26   ar
    16    26    29    1
    17    29    30   ar
    18    30    31   ar
    19    31    32   ar
    20    32    33   ar
    21    26    27   ar
    22    27    28   ar
    23     4     7    1
    24     7     8    1
    25    13    14   ar
    26    14    15   ar
    27    15    16   ar
    28    16    17   ar
    29    17    18    1
    30    18    19    1
    31    19    20    1
    32    20    21    2
    33    17    12   ar
    34     8     1    1
    35    20    16    1
    36    28    23   ar
    37    33    29   ar
@<TRIPOS>MOLECULE
*****
 33 37 0 0 0
SMALL
GASTEIGER

@<TRIPOS>ATOM
      1 N         137.8906  143.1686  163.8074 N.3     1  UNL1       -0.2695
      2 C         138.0319  143.4030  162.3326 C.3     1  UNL1        0.0939
      3 C         138.0135  142.2415  161.3835 C.3     1  UNL1        0.1107
      4 N         137.8538  140.8458  161.9091 N.am    1  UNL1       -0.2764
      5 C         137.8354  139.6844  160.9599 C.2     1  UNL1        0.2318
      6 O         137.6757  138.2887  161.4856 O.2     1  UNL1       -0.2744
      7 C         137.7125  140.6114  163.3840 C.3     1  UNL1        0.1107
      8 C         137.7309  141.7728  164.3331 C.3     1  UNL1        0.0939
      9 C         137.9090  144.3299  164.7566 C.3     1  UNL1        0.0769
     10 C         139.2029  144.7772  165.3695 C.3     1  UNL1        0.0433
     11 C         140.3493  142.4331  166.8499 C.3     1  UNL1        0.0305
     12 C         141.0700  142.9938  165.6599 C.ar    1  UNL1       -0.0260
     13 C         140.4968  144.1659  164.9196 C.ar    1  UNL1       -0.0249
     14 C         141.2174  144.7266  163.7296 C.ar    1  UNL1       -0.0043
     15 C         142.5113  144.1154  163.2797 C.ar    1  UNL1        0.0059
     16 C         143.0844  142.9434  164.0199 C.ar    1  UNL1        0.0748
     17 C         142.3638  142.3826  165.2100 C.ar    1  UNL1        0.0233
     18 C         143.1663  141.2301  165.7371 C.3     1  UNL1        0.2352
     19 O         144.3828  141.0787  164.8729 O.3     1  UNL1       -0.4404
     20 C         144.3323  142.1375  163.8116 C.2     1  UNL1        0.3413
     21 O         145.3508  142.3526  162.7316 O.2     1  UNL1       -0.2449
     22 C         137.9767  139.9189  159.4851 C.3     1  UNL1        0.1325
     23 C         139.2412  139.5250  158.7810 C.ar    1  UNL1        0.0874
     24 C         140.5720  139.8880  159.3702 C.ar    1  UNL1        0.1157
     25 N         141.8366  139.4941  158.6660 N.ar    1  UNL1       -0.2223
     26 C         141.7704  138.7372  157.3727 C.ar    1  UNL1        0.1865
     27 C         140.4395  138.3742  156.7835 C.ar    1  UNL1        0.1373
     28 N         139.1749  138.7681  157.4876 N.ar    1  UNL1       -0.2429
     29 N         143.0348  138.3433  156.6685 N.ar    1  UNL1       -0.1693
     30 C         143.3683  136.9739  156.1552 C.ar    1  UNL1        0.2273
     31 N         144.7274  137.0340  155.5235 N.ar    1  UNL1       -0.1044
     32 N         145.2341  138.4405  155.6464 N.ar    1  UNL1       -0.0222
     33 N         144.1879  139.2497  156.3541 N.ar    1  UNL1       -0.0371
@<TRIPOS>BOND
     1    11    12    1
     2    12    13   ar
     3    13    10    1
     4    10     9    1
     5     9     1    1
     6     1     2    1
     7     2     3    1
     8     3     4    1
     9     4     5   am
    10     5     6    2
    11     5    22    1
    12    22    23    1
    13    23    24   ar
    14    24    25   ar
    15    25    26   ar
    16    26    29    1
    17    29    30   ar
    18    30    31   ar
    19    31    32   ar
    20    32    33   ar
    21    26    27   ar
    22    27    28   ar
    23     4     7    1
    24     7     8    1
    25    13    14   ar
    26    14    15   ar
    27    15    16   ar
    28    16    17   ar
    29    17    18    1
    30    18    19    1
    31    19    20    1
    32    20    21    2
    33    17    12   ar
    34     8     1    1
    35    20    16    1
    36    28    23   ar
    37    33    29   ar
@<TRIPOS>MOLECULE
*****
 33 37 0 0 0
SMALL
GASTEIGER

@<TRIPOS>ATOM
      1 N         142.2032  142.2004  166.8529 N.3     1  UNL1       -0.2695
      2 C         140.9616  142.7694  166.2327 C.3     1  UNL1        0.0939
      3 C         141.0572  143.5909  164.9812 C.3     1  UNL1        0.1107
      4 N         142.3943  143.8433  164.3500 N.am    1  UNL1       -0.2764
      5 C         142.4898  144.6648  163.0986 C.2     1  UNL1        0.2318
      6 O         143.8269  144.9172  162.4673 O.2     1  UNL1       -0.2744
      7 C         143.6359  143.2742  164.9702 C.3     1  UNL1        0.1107
      8 C         143.5403  142.4528  166.2217 C.3     1  UNL1        0.0939
      9 C         142.1077  141.3789  168.1043 C.3     1  UNL1        0.0769
     10 C         141.6423  139.9547  168.0329 C.3     1  UNL1        0.0433
     11 C         143.3376  138.6967  165.9014 C.3     1  UNL1        0.0305
     12 C         141.8537  138.8066  165.7118 C.ar    1  UNL1       -0.0260
     13 C         141.0060  139.4357  166.7776 C.ar    1  UNL1       -0.0249
     14 C         139.5222  139.5456  166.5881 C.ar    1  UNL1       -0.0043
     15 C         138.8858  139.0266  165.3328 C.ar    1  UNL1        0.0059
     16 C         139.7335  138.3976  164.2671 C.ar    1  UNL1        0.0748
     17 C         141.2174  138.2876  164.4566 C.ar    1  UNL1        0.0233
     18 C         141.7920  137.6232  163.2407 C.3     1  UNL1        0.2352
     19 O         140.6632  137.3225  162.2997 O.3     1  UNL1       -0.4404
     20 C         139.3909  137.8011  162.9341 C.2     1  UNL1        0.3413
     21 O         138.0174  137.7009  162.3397 O.2     1  UNL1       -0.2449
     22 C         141.2482  145.2338  162.4784 C.3     1  UNL1        0.1325
     23 C         140.4967  144.4462  161.4465 C.ar    1  UNL1        0.0874
     24 C         140.9697  144.4315  160.0231 C.ar    1  UNL1        0.1157
     25 N         140.2182  143.6439  158.9911 N.ar    1  UNL1       -0.2223
     26 C         138.9937  142.8710  159.3825 C.ar    1  UNL1        0.1865
     27 C         138.5207  142.8858  160.8059 C.ar    1  UNL1        0.1373
     28 N         139.2722  143.6733  161.8379 N.ar    1  UNL1       -0.2429
     29 N         138.2422  142.0834  158.3506 N.ar    1  UNL1       -0.1693
     30 C         138.2039  140.5882  158.2381 C.ar    1  UNL1        0.2273
     31 N         137.3350  140.2335  157.0679 N.ar    1  UNL1       -0.1044
     32 N         136.8363  141.5096  156.4572 N.ar    1  UNL1       -0.0222
     33 N         137.3970  142.6529  157.2499 N.ar    1  UNL1       -0.0371
@<TRIPOS>BOND
     1    11    12    1
     2    12    13   ar
     3    13    10    1
     4    10     9    1
     5     9     1    1
     6     1     2    1
     7     2     3    1
     8     3     4    1
     9     4     5   am
    10     5     6    2
    11     5    22    1
    12    22    23    1
    13    23    24   ar
    14    24    25   ar
    15    25    26   ar
    16    26    29    1
    17    29    30   ar
    18    30    31   ar
    19    31    32   ar
    20    32    33   ar
    21    26    27   ar
    22    27    28   ar
    23     4     7    1
    24     7     8    1
    25    13    14   ar
    26    14    15   ar
    27    15    16   ar
    28    16    17   ar
    29    17    18    1
    30    18    19    1
    31    19    20    1
    32    20    21    2
    33    17    12   ar
    34     8     1    1
    35    20    16    1
    36    28    23   ar
    37    33    29   ar
@<TRIPOS>MOLECULE
*****
 33 37 0 0 0
SMALL
GASTEIGER

@<TRIPOS>ATOM
      1 N         142.9406  143.5142  163.8526 N.3     1  UNL1       -0.2695
      2 C         143.1922  143.1992  162.4077 C.3     1  UNL1        0.0939
      3 C         142.3473  143.8346  161.3435 C.3     1  UNL1        0.1107
      4 N         141.2510  144.7851  161.7241 N.am    1  UNL1       -0.2764
      5 C         140.4063  145.4204  160.6598 C.2     1  UNL1        0.2318
      6 O         139.3100  146.3709  161.0404 O.2     1  UNL1       -0.2744
      7 C         140.9996  145.1001  163.1689 C.3     1  UNL1        0.1107
      8 C         141.8444  144.4647  164.2331 C.3     1  UNL1        0.0939
      9 C         143.7854  142.8788  164.9168 C.3     1  UNL1        0.0769
     10 C         143.3371  141.6046  165.5689 C.3     1  UNL1        0.0433
     11 C         140.7517  140.1440  165.9964 C.3     1  UNL1        0.0305
     12 C         141.3735  140.9137  167.1238 C.ar    1  UNL1       -0.0260
     13 C         142.6663  141.6440  166.9101 C.ar    1  UNL1       -0.0249
     14 C         143.2881  142.4136  168.0373 C.ar    1  UNL1       -0.0043
     15 C         142.6174  142.4531  169.3784 C.ar    1  UNL1        0.0059
     16 C         141.3247  141.7228  169.5922 C.ar    1  UNL1        0.0748
     17 C         140.7028  140.9532  168.4649 C.ar    1  UNL1        0.0233
     18 C         139.4325  140.3360  168.9702 C.3     1  UNL1        0.2352
     19 O         139.2693  140.7242  170.4099 O.3     1  UNL1       -0.4404
     20 C         140.4387  141.5814  170.7943 C.2     1  UNL1        0.3413
     21 O         140.6798  142.1901  172.1438 O.2     1  UNL1       -0.2449
     22 C         140.6578  145.1054  159.2150 C.3     1  UNL1        0.1325
     23 C         139.8348  144.0610  158.5209 C.ar    1  UNL1        0.0874
     24 C         139.1261  143.0097  159.3225 C.ar    1  UNL1        0.1157
     25 N         138.3030  141.9651  158.6284 N.ar    1  UNL1       -0.2223
     26 C         138.1887  141.9720  157.1328 C.ar    1  UNL1        0.1865
     27 C         138.8974  143.0233  156.3313 C.ar    1  UNL1        0.1373
     28 N         139.7204  144.0678  157.0253 N.ar    1  UNL1       -0.2429
     29 N         137.3657  140.9276  156.4387 N.ar    1  UNL1       -0.1693
     30 C         135.8680  140.8445  156.4341 C.ar    1  UNL1        0.2273
     31 N         135.4726  139.6484  155.6199 N.ar    1  UNL1       -0.1044
     32 N         136.7259  138.9921  155.1213 N.ar    1  UNL1       -0.0222
     33 N         137.8959  139.7828  155.6274 N.ar    1  UNL1       -0.0371
@<TRIPOS>BOND
     1    11    12    1
     2    12    13   ar
     3    13    10    1
     4    10     9    1
     5     9     1    1
     6     1     2    1
     7     2     3    1
     8     3     4    1
     9     4     5   am
    10     5     6    2
    11     5    22    1
    12    22    23    1
    13    23    24   ar
    14    24    25   ar
    15    25    26   ar
    16    26    29    1
    17    29    30   ar
    18    30    31   ar
    19    31    32   ar
    20    32    33   ar
    21    26    27   ar
    22    27    28   ar
    23     4     7    1
    24     7     8    1
    25    13    14   ar
    26    14    15   ar
    27    15    16   ar
    28    16    17   ar
    29    17    18    1
    30    18    19    1
    31    19    20    1
    32    20    21    2
    33    17    12   ar
    34     8     1    1
    35    20    16    1
    36    28    23   ar
    37    33    29   ar
@<TRIPOS>MOLECULE
*****
 33 37 0 0 0
SMALL
GASTEIGER

@<TRIPOS>ATOM
      1 N         142.9383  139.7852  160.1437 N.3     1  UNL1       -0.2695
      2 C         143.5255  139.6089  161.5127 C.3     1  UNL1        0.0939
      3 C         142.7059  138.9904  162.6063 C.3     1  UNL1        0.1107
      4 N         141.2992  138.5483  162.3309 N.am    1  UNL1       -0.2764
      5 C         140.4798  137.9298  163.4245 C.2     1  UNL1        0.2318
      6 O         139.0731  137.4877  163.1491 O.2     1  UNL1       -0.2744
      7 C         140.7121  138.7246  160.9619 C.3     1  UNL1        0.1107
      8 C         141.5317  139.3431  159.8683 C.3     1  UNL1        0.0939
      9 C         143.7578  140.4036  159.0501 C.3     1  UNL1        0.0769
     10 C         144.0710  141.8701  159.0854 C.3     1  UNL1        0.0433
     11 C         144.5410  142.8960  161.8652 C.3     1  UNL1        0.0305
     12 C         143.3339  143.3429  161.0949 C.ar    1  UNL1       -0.0260
     13 C         143.0988  142.8300  159.7050 C.ar    1  UNL1       -0.0249
     14 C         141.8918  143.2768  158.9348 C.ar    1  UNL1       -0.0043
     15 C         140.9198  144.2366  159.5544 C.ar    1  UNL1        0.0059
     16 C         141.1547  144.7495  160.9442 C.ar    1  UNL1        0.0748
     17 C         142.3618  144.3027  161.7145 C.ar    1  UNL1        0.0233
     18 C         142.3301  144.9732  163.0559 C.3     1  UNL1        0.2352
     19 O         141.1035  145.8345  163.1146 O.3     1  UNL1       -0.4404
     20 C         140.3770  145.6963  161.8096 C.2     1  UNL1        0.3413
     21 O         139.0975  146.3840  161.4355 O.2     1  UNL1       -0.2449
     22 C         141.0669  137.7535  164.7935 C.3     1  UNL1        0.1325
     23 C         140.8246  138.7879  165.8524 C.ar    1  UNL1        0.0874
     24 C         141.9734  139.5772  166.4066 C.ar    1  UNL1        0.1157
     25 N         141.7310  140.6117  167.4655 N.ar    1  UNL1       -0.2223
     26 C         140.3399  140.8568  167.9702 C.ar    1  UNL1        0.1865
     27 C         139.1911  140.0673  167.4159 C.ar    1  UNL1        0.1373
     28 N         139.4334  139.0329  166.3571 N.ar    1  UNL1       -0.2429
     29 N         140.0975  141.8911  169.0291 N.ar    1  UNL1       -0.1693
     30 C         140.5526  143.3198  168.9867 C.ar    1  UNL1        0.2273
     31 N         140.0938  143.9900  170.2477 N.ar    1  UNL1       -0.1044
     32 N         139.3551  142.9756  171.0695 N.ar    1  UNL1       -0.0222
     33 N         139.3574  141.6784  170.3163 N.ar    1  UNL1       -0.0371
@<TRIPOS>BOND
     1    11    12    1
     2    12    13   ar
     3    13    10    1
     4    10     9    1
     5     9     1    1
     6     1     2    1
     7     2     3    1
     8     3     4    1
     9     4     5   am
    10     5     6    2
    11     5    22    1
    12    22    23    1
    13    23    24   ar
    14    24    25   ar
    15    25    26   ar
    16    26    29    1
    17    29    30   ar
    18    30    31   ar
    19    31    32   ar
    20    32    33   ar
    21    26    27   ar
    22    27    28   ar
    23     4     7    1
    24     7     8    1
    25    13    14   ar
    26    14    15   ar
    27    15    16   ar
    28    16    17   ar
    29    17    18    1
    30    18    19    1
    31    19    20    1
    32    20    21    2
    33    17    12   ar
    34     8     1    1
    35    20    16    1
    36    28    23   ar
    37    33    29   ar
