@<TRIPOS>MOLECULE
*****
 28 31 0 0 0
SMALL
GASTEIGER

@<TRIPOS>ATOM
      1 N         141.9336  139.4353  162.1113 N.3     1  UNL1       -0.2686
      2 C         141.6951  140.7770  162.7379 C.3     1  UNL1        0.0998
      3 C         141.8121  140.9422  164.2242 C.2     1  UNL1        0.0021
      4 C         142.1677  139.7654  165.0839 C.2     1  UNL1        0.0355
      5 C         142.4063  138.4237  164.4572 C.3     1  UNL1        0.0589
      6 C         142.2892  138.2586  162.9709 C.3     1  UNL1        0.0784
      7 N         142.2847  139.9306  166.5702 N.am    1  UNL1       -0.2233
      8 C         143.0760  139.0539  167.4951 C.2     1  UNL1        0.3346
      9 O         143.8891  137.8583  167.0961 O.2     1  UNL1       -0.2497
     10 N         142.9113  139.5829  168.8890 N.am    1  UNL1       -0.1644
     11 C         142.0182  140.7865  168.8256 C.2     1  UNL1        0.0709
     12 C         141.5076  141.7145  169.8877 C.3     1  UNL1        0.0705
     13 C         140.6098  142.8573  169.5166 C.2     1  UNL1       -0.0199
     14 C         140.2226  143.0722  168.0835 C.2     1  UNL1       -0.0029
     15 C         140.7332  142.1442  167.0214 C.2     1  UNL1        0.0160
     16 C         141.6310  141.0013  167.3925 C.2     1  UNL1        0.0709
     17 C         141.8166  139.2701  160.6250 C.3     1  UNL1        0.0728
     18 C         140.4697  139.0678  159.9966 C.3     1  UNL1        0.0254
     19 C         139.4366  138.2303  160.6904 C.3     1  UNL1        0.0706
     20 O         137.1629  139.4841  160.7804 O.2     1  UNL1       -0.2913
     21 C         138.3466  138.8885  161.4833 C.2     1  UNL1        0.1731
     22 C         138.4404  138.9511  162.9790 C.ar    1  UNL1        0.0348
     23 C         138.1421  140.2343  163.6962 C.ar    1  UNL1        0.0051
     24 C         138.2358  140.2969  165.1919 C.ar    1  UNL1        0.0297
     25 C         138.6278  139.0762  165.9705 C.ar    1  UNL1        0.1401
     26 F         138.7215  139.1387  167.4663 F       1  UNL1       -0.2042
     27 C         138.9261  137.7930  165.2534 C.ar    1  UNL1        0.0297
     28 C         138.8324  137.7304  163.7576 C.ar    1  UNL1        0.0051
@<TRIPOS>BOND
     1    20    21    2
     2    21    19    1
     3    19    18    1
     4    18    17    1
     5    17     1    1
     6     1     2    1
     7     2     3    1
     8     3     4    2
     9     4     7    1
    10     7     8   am
    11     8     9    2
    12     8    10    1
    13    10    11    2
    14    11    12    1
    15    12    13    1
    16    13    14    2
    17    14    15    1
    18    15    16    2
    19     4     5    1
    20     5     6    1
    21    21    22    1
    22    22    23   ar
    23    23    24   ar
    24    24    25   ar
    25    25    26    1
    26    25    27   ar
    27    27    28   ar
    28     6     1    1
    29    28    22   ar
    30    16     7    1
    31    16    11    1
@<TRIPOS>MOLECULE
*****
 28 31 0 0 0
SMALL
GASTEIGER

@<TRIPOS>ATOM
      1 N         139.3742  138.5968  164.2685 N.3     1  UNL1       -0.2686
      2 C         140.7713  138.7501  164.7925 C.3     1  UNL1        0.0998
      3 C         141.0009  139.3232  166.1595 C.2     1  UNL1        0.0021
      4 C         139.8334  139.7430  167.0027 C.2     1  UNL1        0.0355
      5 C         138.4364  139.5896  166.4786 C.3     1  UNL1        0.0589
      6 C         138.2067  139.0166  165.1116 C.3     1  UNL1        0.0784
      7 N         140.0630  140.3160  168.3697 N.am    1  UNL1       -0.2233
      8 C         139.1552  140.1627  169.5539 C.2     1  UNL1        0.3346
      9 O         137.8584  139.4093  169.5790 O.2     1  UNL1       -0.2497
     10 N         139.7720  140.8949  170.7086 N.am    1  UNL1       -0.1644
     11 C         141.0610  141.5009  170.2381 C.2     1  UNL1        0.0709
     12 C         142.0941  142.3322  170.9392 C.3     1  UNL1        0.0705
     13 C         143.3071  142.8057  170.1947 C.2     1  UNL1       -0.0199
     14 C         143.4870  142.4479  168.7491 C.2     1  UNL1       -0.0029
     15 C         142.4539  141.6166  168.0481 C.2     1  UNL1        0.0160
     16 C         141.2408  141.1431  168.7926 C.2     1  UNL1        0.0709
     17 C         139.1445  138.0237  162.9014 C.3     1  UNL1        0.0728
     18 C         138.0245  138.5425  162.0492 C.3     1  UNL1        0.0254
     19 C         137.8565  140.0196  161.8492 C.3     1  UNL1        0.0706
     20 O         140.2869  140.7480  161.2899 O.2     1  UNL1       -0.2913
     21 C         139.0185  140.9428  162.0668 C.2     1  UNL1        0.1731
     22 C         138.9123  142.0608  163.0612 C.ar    1  UNL1        0.0348
     23 C         137.7409  142.9966  163.0152 C.ar    1  UNL1        0.0051
     24 C         137.6346  144.1146  164.0096 C.ar    1  UNL1        0.0297
     25 C         138.6998  144.2967  165.0499 C.ar    1  UNL1        0.1401
     26 F         138.5936  145.4147  166.0444 F       1  UNL1       -0.2042
     27 C         139.8712  143.3609  165.0958 C.ar    1  UNL1        0.0297
     28 C         139.9774  142.2429  164.1014 C.ar    1  UNL1        0.0051
@<TRIPOS>BOND
     1    20    21    2
     2    21    19    1
     3    19    18    1
     4    18    17    1
     5    17     1    1
     6     1     2    1
     7     2     3    1
     8     3     4    2
     9     4     7    1
    10     7     8   am
    11     8     9    2
    12     8    10    1
    13    10    11    2
    14    11    12    1
    15    12    13    1
    16    13    14    2
    17    14    15    1
    18    15    16    2
    19     4     5    1
    20     5     6    1
    21    21    22    1
    22    22    23   ar
    23    23    24   ar
    24    24    25   ar
    25    25    26    1
    26    25    27   ar
    27    27    28   ar
    28     6     1    1
    29    28    22   ar
    30    16     7    1
    31    16    11    1
@<TRIPOS>MOLECULE
*****
 28 31 0 0 0
SMALL
GASTEIGER

@<TRIPOS>ATOM
      1 N         141.1068  140.9571  162.2811 N.3     1  UNL1       -0.2686
      2 C         142.0995  140.6947  163.3745 C.3     1  UNL1        0.0998
      3 C         141.6255  140.4694  164.7797 C.2     1  UNL1        0.0021
      4 C         140.1586  140.5066  165.0914 C.2     1  UNL1        0.0355
      5 C         139.1660  140.7691  163.9980 C.3     1  UNL1        0.0589
      6 C         139.6400  140.9943  162.5928 C.3     1  UNL1        0.0784
      7 N         139.6846  140.2813  166.4966 N.am    1  UNL1       -0.2233
      8 C         138.7480  139.2002  166.9485 C.2     1  UNL1        0.3346
      9 O         138.1211  138.1547  166.0746 O.2     1  UNL1       -0.2497
     10 N         138.5485  139.3484  168.4278 N.am    1  UNL1       -0.1644
     11 C         139.3617  140.5210  168.8901 C.2     1  UNL1        0.0709
     12 C         139.5536  141.1381  170.2437 C.3     1  UNL1        0.0705
     13 C         140.4476  142.3319  170.4037 C.2     1  UNL1       -0.0199
     14 C         141.1497  142.9085  169.2102 C.2     1  UNL1       -0.0029
     15 C         140.9579  142.2913  167.8566 C.2     1  UNL1        0.0160
     16 C         140.0639  141.0975  167.6966 C.2     1  UNL1        0.0709
     17 C         141.5808  141.1824  160.8759 C.3     1  UNL1        0.0728
     18 C         142.6711  142.1757  160.6023 C.3     1  UNL1        0.0254
     19 C         142.3833  143.6457  160.6808 C.3     1  UNL1        0.0706
     20 O         143.6036  144.9661  162.5565 O.2     1  UNL1       -0.2913
     21 C         142.3561  144.3345  162.0131 C.2     1  UNL1        0.1731
     22 C         141.0817  144.3916  162.8020 C.ar    1  UNL1        0.0348
     23 C         141.1101  144.1919  164.2884 C.ar    1  UNL1        0.0051
     24 C         139.8356  144.2490  165.0773 C.ar    1  UNL1        0.0297
     25 C         138.5327  144.5059  164.3798 C.ar    1  UNL1        0.1401
     26 F         137.2582  144.5631  165.1687 F       1  UNL1       -0.2042
     27 C         138.5043  144.7057  162.8935 C.ar    1  UNL1        0.0297
     28 C         139.7788  144.6485  162.1045 C.ar    1  UNL1        0.0051
@<TRIPOS>BOND
     1    20    21    2
     2    21    19    1
     3    19    18    1
     4    18    17    1
     5    17     1    1
     6     1     2    1
     7     2     3    1
     8     3     4    2
     9     4     7    1
    10     7     8   am
    11     8     9    2
    12     8    10    1
    13    10    11    2
    14    11    12    1
    15    12    13    1
    16    13    14    2
    17    14    15    1
    18    15    16    2
    19     4     5    1
    20     5     6    1
    21    21    22    1
    22    22    23   ar
    23    23    24   ar
    24    24    25   ar
    25    25    26    1
    26    25    27   ar
    27    27    28   ar
    28     6     1    1
    29    28    22   ar
    30    16     7    1
    31    16    11    1
@<TRIPOS>MOLECULE
*****
 28 31 0 0 0
SMALL
GASTEIGER

@<TRIPOS>ATOM
      1 N         139.3743  139.8068  162.7196 N.3     1  UNL1       -0.2686
      2 C         138.2127  140.1822  163.5912 C.3     1  UNL1        0.0998
      3 C         138.3991  140.3137  165.0737 C.2     1  UNL1        0.0021
      4 C         139.7473  140.0699  165.6847 C.2     1  UNL1        0.0355
      5 C         140.9088  139.6945  164.8130 C.3     1  UNL1        0.0589
      6 C         140.7224  139.5630  163.3305 C.3     1  UNL1        0.0784
      7 N         139.9338  140.2014  167.1672 N.am    1  UNL1       -0.2233
      8 C         139.0393  139.6225  168.2231 C.2     1  UNL1        0.3346
      9 O         137.8014  138.8105  167.9819 O.2     1  UNL1       -0.2497
     10 N         139.6002  139.9983  169.5626 N.am    1  UNL1       -0.1644
     11 C         140.8412  140.8093  169.3346 C.2     1  UNL1        0.0709
     12 C         141.8102  141.4498  170.2837 C.3     1  UNL1        0.0705
     13 C         142.9853  142.2158  169.7524 C.2     1  UNL1       -0.0199
     14 C         143.1915  142.3413  168.2719 C.2     1  UNL1       -0.0029
     15 C         142.2225  141.7009  167.3228 C.2     1  UNL1        0.0160
     16 C         141.0474  140.9349  167.8541 C.2     1  UNL1        0.0709
     17 C         139.1878  139.6753  161.2370 C.3     1  UNL1        0.0728
     18 C         139.5185  140.8268  160.3344 C.3     1  UNL1        0.0254
     19 C         138.6370  142.0403  160.3133 C.3     1  UNL1        0.0706
     20 O         139.4960  144.4691  159.9763 O.2     1  UNL1       -0.2913
     21 C         139.1298  143.3353  160.8878 C.2     1  UNL1        0.1731
     22 C         139.2565  143.4967  162.3737 C.ar    1  UNL1        0.0348
     23 C         140.5729  143.2421  163.0462 C.ar    1  UNL1        0.0051
     24 C         140.6995  143.4035  164.5321 C.ar    1  UNL1        0.0297
     25 C         139.5098  143.8193  165.3454 C.ar    1  UNL1        0.1401
     26 F         139.6364  143.9807  166.8314 F       1  UNL1       -0.2042
     27 C         138.1934  144.0738  164.6729 C.ar    1  UNL1        0.0297
     28 C         138.0667  143.9125  163.1870 C.ar    1  UNL1        0.0051
@<TRIPOS>BOND
     1    20    21    2
     2    21    19    1
     3    19    18    1
     4    18    17    1
     5    17     1    1
     6     1     2    1
     7     2     3    1
     8     3     4    2
     9     4     7    1
    10     7     8   am
    11     8     9    2
    12     8    10    1
    13    10    11    2
    14    11    12    1
    15    12    13    1
    16    13    14    2
    17    14    15    1
    18    15    16    2
    19     4     5    1
    20     5     6    1
    21    21    22    1
    22    22    23   ar
    23    23    24   ar
    24    24    25   ar
    25    25    26    1
    26    25    27   ar
    27    27    28   ar
    28     6     1    1
    29    28    22   ar
    30    16     7    1
    31    16    11    1
@<TRIPOS>MOLECULE
*****
 28 31 0 0 0
SMALL
GASTEIGER

@<TRIPOS>ATOM
      1 N         141.6075  138.5014  163.3348 N.3     1  UNL1       -0.2686
      2 C         142.5280  138.2588  164.4940 C.3     1  UNL1        0.0998
      3 C         142.1821  138.7954  165.8514 C.2     1  UNL1        0.0021
      4 C         140.9157  139.5745  166.0495 C.2     1  UNL1        0.0355
      5 C         139.9953  139.8170  164.8903 C.3     1  UNL1        0.0589
      6 C         140.3411  139.2805  163.5329 C.3     1  UNL1        0.0784
      7 N         140.5698  140.1111  167.4069 N.am    1  UNL1       -0.2233
      8 C         139.3089  139.8324  168.1701 C.2     1  UNL1        0.3346
      9 O         138.1724  138.9683  167.7099 O.2     1  UNL1       -0.2497
     10 N         139.3840  140.5696  169.4743 N.am    1  UNL1       -0.1644
     11 C         140.6913  141.3038  169.5172 C.2     1  UNL1        0.0709
     12 C         141.3091  142.1939  170.5546 C.3     1  UNL1        0.0705
     13 C         142.6597  142.8005  170.3142 C.2     1  UNL1       -0.0199
     14 C         143.3926  142.5171  169.0365 C.2     1  UNL1       -0.0029
     15 C         142.7748  141.6271  167.9991 C.2     1  UNL1        0.0160
     16 C         141.4242  141.0204  168.2394 C.2     1  UNL1        0.0709
     17 C         141.9533  137.9649  161.9774 C.3     1  UNL1        0.0728
     18 C         143.3857  137.9089  161.5357 C.3     1  UNL1        0.0254
     19 C         144.0432  139.1309  160.9661 C.3     1  UNL1        0.0706
     20 O         142.4699  141.0357  160.1619 O.2     1  UNL1       -0.2913
     21 C         143.4258  140.4817  161.1765 C.2     1  UNL1        0.1731
     22 C         143.7642  141.2784  162.4015 C.ar    1  UNL1        0.0348
     23 C         142.6932  142.0499  163.1140 C.ar    1  UNL1        0.0051
     24 C         143.0316  142.8467  164.3390 C.ar    1  UNL1        0.0297
     25 C         144.4411  142.8719  164.8515 C.ar    1  UNL1        0.1401
     26 F         144.7796  143.6687  166.0765 F       1  UNL1       -0.2042
     27 C         145.5121  142.1004  164.1390 C.ar    1  UNL1        0.0297
     28 C         145.1737  141.3037  162.9140 C.ar    1  UNL1        0.0051
@<TRIPOS>BOND
     1    20    21    2
     2    21    19    1
     3    19    18    1
     4    18    17    1
     5    17     1    1
     6     1     2    1
     7     2     3    1
     8     3     4    2
     9     4     7    1
    10     7     8   am
    11     8     9    2
    12     8    10    1
    13    10    11    2
    14    11    12    1
    15    12    13    1
    16    13    14    2
    17    14    15    1
    18    15    16    2
    19     4     5    1
    20     5     6    1
    21    21    22    1
    22    22    23   ar
    23    23    24   ar
    24    24    25   ar
    25    25    26    1
    26    25    27   ar
    27    27    28   ar
    28     6     1    1
    29    28    22   ar
    30    16     7    1
    31    16    11    1
@<TRIPOS>MOLECULE
*****
 28 31 0 0 0
SMALL
GASTEIGER

@<TRIPOS>ATOM
      1 N         140.6735  139.1306  162.7966 N.3     1  UNL1       -0.2686
      2 C         140.3313  138.2086  163.9293 C.3     1  UNL1        0.0998
      3 C         140.7464  138.5537  165.3288 C.2     1  UNL1        0.0021
      4 C         141.5038  139.8207  165.5957 C.2     1  UNL1        0.0355
      5 C         141.8459  140.7425  164.4630 C.3     1  UNL1        0.0589
      6 C         141.4308  140.3975  163.0635 C.3     1  UNL1        0.0784
      7 N         141.9189  140.1657  166.9952 N.am    1  UNL1       -0.2233
      8 C         142.8865  139.3947  167.8432 C.2     1  UNL1        0.3346
      9 O         143.6089  138.1432  167.4407 O.2     1  UNL1       -0.2497
     10 N         143.0049  140.0948  169.1645 N.am    1  UNL1       -0.1644
     11 C         142.1104  141.2986  169.1331 C.2     1  UNL1        0.0709
     12 C         141.8204  142.3604  170.1520 C.3     1  UNL1        0.0705
     13 C         140.8592  143.4661  169.8303 C.2     1  UNL1       -0.0199
     14 C         140.1880  143.5099  168.4895 C.2     1  UNL1       -0.0029
     15 C         140.4780  142.4480  167.4705 C.2     1  UNL1        0.0160
     16 C         141.4392  141.3424  167.7923 C.2     1  UNL1        0.0709
     17 C         140.2584  138.7855  161.3971 C.3     1  UNL1        0.0728
     18 C         138.8684  138.2902  161.1277 C.3     1  UNL1        0.0254
     19 C         137.7065  139.2354  161.2088 C.3     1  UNL1        0.0706
     20 O         138.0965  141.1793  159.5296 O.2     1  UNL1       -0.2913
     21 C         137.9083  140.6968  160.9374 C.2     1  UNL1        0.1731
     22 C         137.9219  141.6758  162.0739 C.ar    1  UNL1        0.0348
     23 C         137.8337  141.1842  163.4883 C.ar    1  UNL1        0.0051
     24 C         137.8474  142.1632  164.6247 C.ar    1  UNL1        0.0297
     25 C         137.9491  143.6336  164.3466 C.ar    1  UNL1        0.1401
     26 F         137.9628  144.6127  165.4830 F       1  UNL1       -0.2042
     27 C         138.0373  144.1252  162.9322 C.ar    1  UNL1        0.0297
     28 C         138.0237  143.1462  161.7958 C.ar    1  UNL1        0.0051
@<TRIPOS>BOND
     1    20    21    2
     2    21    19    1
     3    19    18    1
     4    18    17    1
     5    17     1    1
     6     1     2    1
     7     2     3    1
     8     3     4    2
     9     4     7    1
    10     7     8   am
    11     8     9    2
    12     8    10    1
    13    10    11    2
    14    11    12    1
    15    12    13    1
    16    13    14    2
    17    14    15    1
    18    15    16    2
    19     4     5    1
    20     5     6    1
    21    21    22    1
    22    22    23   ar
    23    23    24   ar
    24    24    25   ar
    25    25    26    1
    26    25    27   ar
    27    27    28   ar
    28     6     1    1
    29    28    22   ar
    30    16     7    1
    31    16    11    1
@<TRIPOS>MOLECULE
*****
 28 31 0 0 0
SMALL
GASTEIGER

@<TRIPOS>ATOM
      1 N         142.0718  139.0048  162.9166 N.3     1  UNL1       -0.2686
      2 C         142.7907  138.4744  164.1216 C.3     1  UNL1        0.0998
      3 C         142.2120  138.6785  165.4903 C.2     1  UNL1        0.0021
      4 C         140.9143  139.4129  165.6541 C.2     1  UNL1        0.0355
      5 C         140.1954  139.9432  164.4492 C.3     1  UNL1        0.0589
      6 C         140.7742  139.7392  163.0804 C.3     1  UNL1        0.0784
      7 N         140.3356  139.6169  167.0229 N.am    1  UNL1       -0.2233
      8 C         138.9064  139.3914  167.4184 C.2     1  UNL1        0.3346
      9 O         137.8049  138.9222  166.5148 O.2     1  UNL1       -0.2497
     10 N         138.7720  139.7174  168.8764 N.am    1  UNL1       -0.1644
     11 C         140.1182  140.1444  169.3819 C.2     1  UNL1        0.0709
     12 C         140.5889  140.5818  170.7373 C.3     1  UNL1        0.0705
     13 C         142.0259  140.9571  170.9471 C.2     1  UNL1       -0.0199
     14 C         142.9922  140.8950  169.8015 C.2     1  UNL1       -0.0029
     15 C         142.5215  140.4576  168.4461 C.2     1  UNL1        0.0160
     16 C         141.0845  140.0824  168.2363 C.2     1  UNL1        0.0709
     17 C         142.6505  138.8008  161.5479 C.3     1  UNL1        0.0728
     18 C         144.0201  139.3216  161.2274 C.3     1  UNL1        0.0254
     19 C         144.2690  140.8003  161.1844 C.3     1  UNL1        0.0706
     20 O         146.0042  141.6455  162.9237 O.2     1  UNL1       -0.2913
     21 C         144.5852  141.5446  162.4477 C.2     1  UNL1        0.1731
     22 C         143.4824  142.1880  163.2351 C.ar    1  UNL1        0.0348
     23 C         142.3752  142.9084  162.5245 C.ar    1  UNL1        0.0051
     24 C         141.2724  143.5518  163.3120 C.ar    1  UNL1        0.0297
     25 C         141.2770  143.4747  164.8099 C.ar    1  UNL1        0.1401
     26 F         140.1743  144.1180  165.5974 F       1  UNL1       -0.2042
     27 C         142.3843  142.7542  165.5205 C.ar    1  UNL1        0.0297
     28 C         143.4870  142.1109  164.7331 C.ar    1  UNL1        0.0051
@<TRIPOS>BOND
     1    20    21    2
     2    21    19    1
     3    19    18    1
     4    18    17    1
     5    17     1    1
     6     1     2    1
     7     2     3    1
     8     3     4    2
     9     4     7    1
    10     7     8   am
    11     8     9    2
    12     8    10    1
    13    10    11    2
    14    11    12    1
    15    12    13    1
    16    13    14    2
    17    14    15    1
    18    15    16    2
    19     4     5    1
    20     5     6    1
    21    21    22    1
    22    22    23   ar
    23    23    24   ar
    24    24    25   ar
    25    25    26    1
    26    25    27   ar
    27    27    28   ar
    28     6     1    1
    29    28    22   ar
    30    16     7    1
    31    16    11    1
@<TRIPOS>MOLECULE
*****
 28 31 0 0 0
SMALL
GASTEIGER

@<TRIPOS>ATOM
      1 N         141.0810  138.7630  162.4332 N.3     1  UNL1       -0.2686
      2 C         140.5485  137.6408  163.2740 C.3     1  UNL1        0.0998
      3 C         140.1793  137.8870  164.7069 C.2     1  UNL1        0.0021
      4 C         140.3427  139.2556  165.2990 C.2     1  UNL1        0.0355
      5 C         140.8752  140.3777  164.4582 C.3     1  UNL1        0.0589
      6 C         141.2444  140.1315  163.0253 C.3     1  UNL1        0.0784
      7 N         139.9735  139.5018  166.7319 N.am    1  UNL1       -0.2233
      8 C         138.6285  139.2594  167.3499 C.2     1  UNL1        0.3346
      9 O         137.4164  138.7283  166.6437 O.2     1  UNL1       -0.2497
     10 N         138.7083  139.6415  168.7983 N.am    1  UNL1       -0.1644
     11 C         140.1027  140.1200  169.0753 C.2     1  UNL1        0.0709
     12 C         140.7614  140.6231  170.3254 C.3     1  UNL1        0.0705
     13 C         142.2020  141.0400  170.2984 C.2     1  UNL1       -0.0199
     14 C         142.9840  140.9536  169.0213 C.2     1  UNL1       -0.0029
     15 C         142.3253  140.4505  167.7712 C.2     1  UNL1        0.0160
     16 C         140.8847  140.0337  167.7981 C.2     1  UNL1        0.0709
     17 C         141.4502  138.5168  161.0004 C.3     1  UNL1        0.0728
     18 C         140.3925  138.5487  159.9372 C.3     1  UNL1        0.0254
     19 C         139.9269  139.8620  159.3817 C.3     1  UNL1        0.0706
     20 O         137.4464  140.1158  158.6518 O.2     1  UNL1       -0.2913
     21 C         138.5335  140.3424  159.6603 C.2     1  UNL1        0.1731
     22 C         138.2273  141.0495  160.9472 C.ar    1  UNL1        0.0348
     23 C         138.3733  142.5396  161.0375 C.ar    1  UNL1        0.0051
     24 C         138.0670  143.2467  162.3244 C.ar    1  UNL1        0.0297
     25 C         137.6147  142.4636  163.5211 C.ar    1  UNL1        0.1401
     26 F         137.3084  143.1706  164.8081 F       1  UNL1       -0.2042
     27 C         137.4686  140.9735  163.4308 C.ar    1  UNL1        0.0297
     28 C         137.7749  140.2664  162.1439 C.ar    1  UNL1        0.0051
@<TRIPOS>BOND
     1    20    21    2
     2    21    19    1
     3    19    18    1
     4    18    17    1
     5    17     1    1
     6     1     2    1
     7     2     3    1
     8     3     4    2
     9     4     7    1
    10     7     8   am
    11     8     9    2
    12     8    10    1
    13    10    11    2
    14    11    12    1
    15    12    13    1
    16    13    14    2
    17    14    15    1
    18    15    16    2
    19     4     5    1
    20     5     6    1
    21    21    22    1
    22    22    23   ar
    23    23    24   ar
    24    24    25   ar
    25    25    26    1
    26    25    27   ar
    27    27    28   ar
    28     6     1    1
    29    28    22   ar
    30    16     7    1
    31    16    11    1
@<TRIPOS>MOLECULE
*****
 28 31 0 0 0
SMALL
GASTEIGER

@<TRIPOS>ATOM
      1 N         142.3007  142.2232  162.8022 N.3     1  UNL1       -0.2686
      2 C         141.5559  140.9607  163.1210 C.3     1  UNL1        0.0998
      3 C         141.5523  140.4255  164.5223 C.2     1  UNL1        0.0021
      4 C         142.2935  141.1528  165.6048 C.2     1  UNL1        0.0355
      5 C         143.0382  142.4151  165.2860 C.3     1  UNL1        0.0589
      6 C         143.0418  142.9503  163.8847 C.3     1  UNL1        0.0784
      7 N         142.2899  140.6176  167.0061 N.am    1  UNL1       -0.2233
      8 C         142.9064  139.3272  167.4586 C.2     1  UNL1        0.3346
      9 O         143.6348  138.3454  166.5894 O.2     1  UNL1       -0.2497
     10 N         142.6667  139.1910  168.9331 N.am    1  UNL1       -0.1644
     11 C         141.9020  140.3971  169.3918 C.2     1  UNL1        0.0709
     12 C         141.3876  140.8064  170.7400 C.3     1  UNL1        0.0705
     13 C         140.6404  142.0975  170.8973 C.2     1  UNL1       -0.0199
     14 C         140.4075  142.9792  169.7064 C.2     1  UNL1       -0.0029
     15 C         140.9219  142.5699  168.3581 C.2     1  UNL1        0.0160
     16 C         141.6691  141.2788  168.2008 C.2     1  UNL1        0.0709
     17 C         142.3043  142.7584  161.4010 C.3     1  UNL1        0.0728
     18 C         142.2363  144.2378  161.1630 C.3     1  UNL1        0.0254
     19 C         140.9973  144.8469  160.5766 C.3     1  UNL1        0.0706
     20 O         139.2002  146.5452  161.3744 O.2     1  UNL1       -0.2913
     21 C         139.8381  145.1905  161.4643 C.2     1  UNL1        0.1731
     22 C         139.3168  144.1794  162.4421 C.ar    1  UNL1        0.0348
     23 C         139.6442  144.3079  163.9002 C.ar    1  UNL1        0.0051
     24 C         139.1228  143.2968  164.8779 C.ar    1  UNL1        0.0297
     25 C         138.2740  142.1573  164.3974 C.ar    1  UNL1        0.1401
     26 F         137.7526  141.1462  165.3750 F       1  UNL1       -0.2042
     27 C         137.9466  142.0288  162.9392 C.ar    1  UNL1        0.0297
     28 C         138.4679  143.0399  161.9615 C.ar    1  UNL1        0.0051
@<TRIPOS>BOND
     1    20    21    2
     2    21    19    1
     3    19    18    1
     4    18    17    1
     5    17     1    1
     6     1     2    1
     7     2     3    1
     8     3     4    2
     9     4     7    1
    10     7     8   am
    11     8     9    2
    12     8    10    1
    13    10    11    2
    14    11    12    1
    15    12    13    1
    16    13    14    2
    17    14    15    1
    18    15    16    2
    19     4     5    1
    20     5     6    1
    21    21    22    1
    22    22    23   ar
    23    23    24   ar
    24    24    25   ar
    25    25    26    1
    26    25    27   ar
    27    27    28   ar
    28     6     1    1
    29    28    22   ar
    30    16     7    1
    31    16    11    1
