@<TRIPOS>MOLECULE
*****
 34 38 0 0 0
SMALL
GASTEIGER

@<TRIPOS>ATOM
      1 C         142.8162  138.8098  161.9403 C.2     1  UNL1        0.0033
      2 C         141.7119  138.8315  160.9254 C.2     1  UNL1        0.0642
      3 C         140.4071  139.4958  161.2508 C.3     1  UNL1        0.0383
      4 C         139.3028  139.5175  160.2359 C.3     1  UNL1        0.0559
      5 C         139.5034  138.8747  158.8955 C.3     1  UNL1        0.2063
      6 N         140.8083  138.2104  158.5701 N.pl3   1  UNL1       -0.1533
      7 C         141.9125  138.1888  159.5850 C.2     1  UNL1        0.3682
      8 N         143.0805  137.4643  158.9839 N.2     1  UNL1        0.1587
      9 O         142.6980  137.0383  157.5975 O.2     1  UNL1       -0.2360
     10 C         141.2937  137.4994  157.3417 C.3     1  UNL1        0.3561
     11 C         141.4943  136.8566  156.0013 C.ar    1  UNL1        0.0624
     12 C         141.8532  135.4028  155.9129 C.ar    1  UNL1        0.0056
     13 C         142.0538  134.7601  154.5725 C.ar    1  UNL1        0.0296
     14 C         141.8955  135.5712  153.3206 C.ar    1  UNL1        0.1401
     15 F         142.0961  134.9284  151.9802 F       1  UNL1       -0.2042
     16 C         141.5366  137.0249  153.4091 C.ar    1  UNL1        0.0296
     17 C         141.3360  137.6676  154.7495 C.ar    1  UNL1        0.0056
     18 C         142.7714  141.5384  164.8218 C.ar    1  UNL1        0.1547
     19 C         142.9720  140.8957  163.4814 C.ar    1  UNL1        0.0384
     20 C         142.6156  139.4526  163.2807 C.ar    1  UNL1        0.0030
     21 C         142.0586  138.6521  164.4205 C.ar    1  UNL1        0.0017
     22 C         141.8580  139.2948  165.7609 C.ar    1  UNL1        0.0206
     23 C         142.2144  140.7380  165.9615 C.ar    1  UNL1        0.0994
     24 N         142.0138  141.3807  167.3019 N.ar    1  UNL1       -0.2839
     25 C         142.7951  141.0844  168.5476 C.ar    1  UNL1        0.1826
     26 N         142.2608  141.9532  169.6476 N.ar    1  UNL1       -0.2280
     27 C         141.1494  142.7865  169.0817 C.ar    1  UNL1        0.0786
     28 C         140.3338  143.7963  169.8334 C.3     1  UNL1        0.0538
     29 C         140.9967  142.4327  167.6320 C.ar    1  UNL1        0.0963
     30 C         144.5419  143.3676  165.3410 C.3     1  UNL1        0.2525
     31 O         143.1279  142.9816  165.0224 O.3     1  UNL1       -0.4700
     32 C         139.9313  137.8261  156.8057 C.3     1  UNL1        0.2342
     33 O         138.9459  136.7266  156.5413 O.3     1  UNL1       -0.3751
     34 H         139.2733  136.1652  155.8211 H       1  UNL1        0.2107
@<TRIPOS>BOND
     1    30    31    1
     2    31    18    1
     3    18    19   ar
     4    19    20   ar
     5    20     1    1
     6     1     2    2
     7     2     3    1
     8     3     4    1
     9     4     5    1
    10     5     6    1
    11     6     7    1
    12     7     8    2
    13     8     9    1
    14     9    10    1
    15    10    32    1
    16    32    33    1
    17    10    11    1
    18    11    12   ar
    19    12    13   ar
    20    13    14   ar
    21    14    15    1
    22    14    16   ar
    23    16    17   ar
    24    20    21   ar
    25    21    22   ar
    26    22    23   ar
    27    23    24    1
    28    24    25   ar
    29    25    26   ar
    30    26    27   ar
    31    27    28    1
    32    27    29   ar
    33    23    18   ar
    34    29    24   ar
    35     7     2    1
    36    17    11   ar
    37    10     6    1
    38    33    34    1
@<TRIPOS>MOLECULE
*****
 34 38 0 0 0
SMALL
GASTEIGER

@<TRIPOS>ATOM
      1 C         142.6653  140.6322  159.5131 C.2     1  UNL1        0.0033
      2 C         142.9964  140.3895  160.9559 C.2     1  UNL1        0.0642
      3 C         144.4073  140.5504  161.4389 C.3     1  UNL1        0.0383
      4 C         144.7384  140.3077  162.8816 C.3     1  UNL1        0.0559
      5 C         143.6585  139.9042  163.8413 C.3     1  UNL1        0.2063
      6 N         142.2476  139.7433  163.3583 N.pl3   1  UNL1       -0.1533
      7 C         141.9166  139.9859  161.9156 C.2     1  UNL1        0.3682
      8 N         140.4465  139.7510  161.7314 N.2     1  UNL1        0.1587
      9 O         139.8691  139.3631  163.0603 O.2     1  UNL1       -0.2360
     10 C         140.9822  139.3583  164.0658 C.3     1  UNL1        0.3561
     11 C         139.9023  138.9547  165.0255 C.ar    1  UNL1        0.0624
     12 C         139.1821  137.6521  164.8395 C.ar    1  UNL1        0.0056
     13 C         138.1022  137.2485  165.7992 C.ar    1  UNL1        0.0296
     14 C         137.7426  138.1476  166.9449 C.ar    1  UNL1        0.1401
     15 F         136.6627  137.7440  167.9045 F       1  UNL1       -0.2042
     16 C         138.4628  139.4501  167.1308 C.ar    1  UNL1        0.0296
     17 C         139.5427  139.8537  166.1711 C.ar    1  UNL1        0.0056
     18 C         145.1293  140.5801  156.4025 C.ar    1  UNL1        0.1547
     19 C         144.0494  140.1765  157.3622 C.ar    1  UNL1        0.0384
     20 C         143.7452  141.0358  158.5534 C.ar    1  UNL1        0.0030
     21 C         144.5208  142.2987  158.7850 C.ar    1  UNL1        0.0017
     22 C         145.6007  142.7023  157.8253 C.ar    1  UNL1        0.0206
     23 C         145.9049  141.8429  156.6341 C.ar    1  UNL1        0.0994
     24 N         146.9848  142.2465  155.6744 N.ar    1  UNL1       -0.2839
     25 C         146.8542  143.2585  154.5749 C.ar    1  UNL1        0.1826
     26 N         148.1736  143.3464  153.8667 N.ar    1  UNL1       -0.2280
     27 C         149.1196  142.3887  154.5284 C.ar    1  UNL1        0.0786
     28 C         150.5492  142.1523  154.1410 C.3     1  UNL1        0.0538
     29 C         148.3849  141.7090  155.6456 C.ar    1  UNL1        0.0963
     30 C         144.7541  138.3932  155.0510 C.3     1  UNL1        0.2525
     31 O         145.4336  139.7208  155.2112 O.3     1  UNL1       -0.4700
     32 C         141.8696  139.2692  165.2719 C.3     1  UNL1        0.2342
     33 O         142.4551  137.9487  165.6763 O.3     1  UNL1       -0.3751
     34 H         141.7435  137.3509  165.9538 H       1  UNL1        0.2107
@<TRIPOS>BOND
     1    30    31    1
     2    31    18    1
     3    18    19   ar
     4    19    20   ar
     5    20     1    1
     6     1     2    2
     7     2     3    1
     8     3     4    1
     9     4     5    1
    10     5     6    1
    11     6     7    1
    12     7     8    2
    13     8     9    1
    14     9    10    1
    15    10    32    1
    16    32    33    1
    17    10    11    1
    18    11    12   ar
    19    12    13   ar
    20    13    14   ar
    21    14    15    1
    22    14    16   ar
    23    16    17   ar
    24    20    21   ar
    25    21    22   ar
    26    22    23   ar
    27    23    24    1
    28    24    25   ar
    29    25    26   ar
    30    26    27   ar
    31    27    28    1
    32    27    29   ar
    33    23    18   ar
    34    29    24   ar
    35     7     2    1
    36    17    11   ar
    37    10     6    1
    38    33    34    1
@<TRIPOS>MOLECULE
*****
 34 38 0 0 0
SMALL
GASTEIGER

@<TRIPOS>ATOM
      1 C         141.5399  139.6288  161.1533 C.2     1  UNL1        0.0033
      2 C         140.6604  139.1230  162.2582 C.2     1  UNL1        0.0642
      3 C         139.7784  137.9316  162.0290 C.3     1  UNL1        0.0383
      4 C         138.8990  137.4259  163.1339 C.3     1  UNL1        0.0559
      5 C         138.9016  138.1115  164.4680 C.3     1  UNL1        0.2063
      6 N         139.7836  139.3029  164.6973 N.pl3   1  UNL1       -0.1533
      7 C         140.6630  139.8087  163.5924 C.2     1  UNL1        0.3682
      8 N         141.4206  140.9957  164.1093 N.2     1  UNL1        0.1587
      9 O         141.0094  141.2235  165.5337 O.2     1  UNL1       -0.2360
     10 C         139.9977  140.1773  165.8971 C.3     1  UNL1        0.3561
     11 C         140.0003  140.8630  167.2312 C.ar    1  UNL1        0.0624
     12 C         140.4229  142.2985  167.3359 C.ar    1  UNL1        0.0056
     13 C         140.4255  142.9841  168.6700 C.ar    1  UNL1        0.0296
     14 C         140.0055  142.2343  169.8994 C.ar    1  UNL1        0.1401
     15 F         140.0081  142.9199  171.2336 F       1  UNL1       -0.2042
     16 C         139.5829  140.7989  169.7947 C.ar    1  UNL1        0.0296
     17 C         139.5803  140.1132  168.4606 C.ar    1  UNL1        0.0056
     18 C         140.3201  138.3283  157.6078 C.ar    1  UNL1        0.1547
     19 C         140.3227  139.0139  158.9419 C.ar    1  UNL1        0.0384
     20 C         141.5373  138.9432  159.8192 C.ar    1  UNL1        0.0030
     21 C         142.7494  138.1867  159.3624 C.ar    1  UNL1        0.0017
     22 C         142.7468  137.5010  158.0282 C.ar    1  UNL1        0.0206
     23 C         141.5321  137.5719  157.1510 C.ar    1  UNL1        0.0994
     24 N         141.5295  136.8862  155.8168 N.ar    1  UNL1       -0.2839
     25 C         141.5700  137.5618  154.4782 C.ar    1  UNL1        0.1826
     26 N         141.5515  136.4977  153.4212 N.ar    1  UNL1       -0.2280
     27 C         141.4995  135.1644  154.1065 C.ar    1  UNL1        0.0786
     28 C         141.4668  133.8260  153.4300 C.3     1  UNL1        0.0538
     29 C         141.4859  135.4046  155.5871 C.ar    1  UNL1        0.0963
     30 C         138.7884  139.6639  155.9892 C.3     1  UNL1        0.2525
     31 O         139.1054  138.3991  156.7306 O.3     1  UNL1       -0.4700
     32 C         138.9865  139.2745  166.5393 C.3     1  UNL1        0.2342
     33 O         137.5230  139.4922  166.2929 O.3     1  UNL1       -0.3751
     34 H         137.2526  140.3397  166.6795 H       1  UNL1        0.2107
@<TRIPOS>BOND
     1    30    31    1
     2    31    18    1
     3    18    19   ar
     4    19    20   ar
     5    20     1    1
     6     1     2    2
     7     2     3    1
     8     3     4    1
     9     4     5    1
    10     5     6    1
    11     6     7    1
    12     7     8    2
    13     8     9    1
    14     9    10    1
    15    10    32    1
    16    32    33    1
    17    10    11    1
    18    11    12   ar
    19    12    13   ar
    20    13    14   ar
    21    14    15    1
    22    14    16   ar
    23    16    17   ar
    24    20    21   ar
    25    21    22   ar
    26    22    23   ar
    27    23    24    1
    28    24    25   ar
    29    25    26   ar
    30    26    27   ar
    31    27    28    1
    32    27    29   ar
    33    23    18   ar
    34    29    24   ar
    35     7     2    1
    36    17    11   ar
    37    10     6    1
    38    33    34    1
@<TRIPOS>MOLECULE
*****
 34 38 0 0 0
SMALL
GASTEIGER

@<TRIPOS>ATOM
      1 C         140.3871  140.1502  161.2485 C.2     1  UNL1        0.0033
      2 C         140.8758  139.5484  162.5327 C.2     1  UNL1        0.0642
      3 C         141.6633  138.2720  162.5109 C.3     1  UNL1        0.0383
      4 C         142.1520  137.6703  163.7950 C.3     1  UNL1        0.0559
      5 C         141.8531  138.3449  165.1010 C.3     1  UNL1        0.2063
      6 N         141.0655  139.6213  165.1228 N.pl3   1  UNL1       -0.1533
      7 C         140.5769  140.2231  163.8387 C.2     1  UNL1        0.3682
      8 N         139.8292  141.4804  164.1708 N.2     1  UNL1        0.1587
      9 O         139.8559  141.6556  165.6603 O.2     1  UNL1       -0.2360
     10 C         140.6199  140.5067  166.2486 C.3     1  UNL1        0.3561
     11 C         140.3210  141.1813  167.5546 C.ar    1  UNL1        0.0624
     12 C         140.7220  142.6107  167.7694 C.ar    1  UNL1        0.0056
     13 C         140.4231  143.2854  169.0753 C.ar    1  UNL1        0.0296
     14 C         139.7232  142.5306  170.1665 C.ar    1  UNL1        0.1401
     15 F         139.4243  143.2052  171.4725 F       1  UNL1       -0.2042
     16 C         139.3223  141.1012  169.9517 C.ar    1  UNL1        0.0296
     17 C         139.6212  140.4266  168.6457 C.ar    1  UNL1        0.0056
     18 C         142.3565  138.9004  158.0377 C.ar    1  UNL1        0.1547
     19 C         142.0576  139.5750  159.3437 C.ar    1  UNL1        0.0384
     20 C         140.6860  139.4756  159.9426 C.ar    1  UNL1        0.0030
     21 C         139.6131  138.7015  159.2355 C.ar    1  UNL1        0.0017
     22 C         139.9120  138.0269  157.9295 C.ar    1  UNL1        0.0206
     23 C         141.2838  138.1263  157.3306 C.ar    1  UNL1        0.0994
     24 N         141.5827  137.4517  156.0247 N.ar    1  UNL1       -0.2839
     25 C         141.7968  138.1363  154.7073 C.ar    1  UNL1        0.1826
     26 N         142.0664  137.0817  153.6752 N.ar    1  UNL1       -0.2280
     27 C         142.0189  135.7453  154.3548 C.ar    1  UNL1        0.0786
     28 C         142.2329  134.4140  153.6977 C.3     1  UNL1        0.0538
     29 C         141.7200  135.9740  155.8068 C.ar    1  UNL1        0.0963
     30 C         144.1615  140.2669  156.7630 C.3     1  UNL1        0.2525
     31 O         143.7282  138.9998  157.4389 O.3     1  UNL1       -0.4700
     32 C         141.3215  139.4987  167.1100 C.3     1  UNL1        0.2342
     33 O         142.6682  139.8154  167.6898 O.3     1  UNL1       -0.3751
     34 H         143.3174  139.8969  166.9737 H       1  UNL1        0.2107
@<TRIPOS>BOND
     1    30    31    1
     2    31    18    1
     3    18    19   ar
     4    19    20   ar
     5    20     1    1
     6     1     2    2
     7     2     3    1
     8     3     4    1
     9     4     5    1
    10     5     6    1
    11     6     7    1
    12     7     8    2
    13     8     9    1
    14     9    10    1
    15    10    32    1
    16    32    33    1
    17    10    11    1
    18    11    12   ar
    19    12    13   ar
    20    13    14   ar
    21    14    15    1
    22    14    16   ar
    23    16    17   ar
    24    20    21   ar
    25    21    22   ar
    26    22    23   ar
    27    23    24    1
    28    24    25   ar
    29    25    26   ar
    30    26    27   ar
    31    27    28    1
    32    27    29   ar
    33    23    18   ar
    34    29    24   ar
    35     7     2    1
    36    17    11   ar
    37    10     6    1
    38    33    34    1
@<TRIPOS>MOLECULE
*****
 34 38 0 0 0
SMALL
GASTEIGER

@<TRIPOS>ATOM
      1 C         141.9531  139.0714  160.2180 C.2     1  UNL1        0.0033
      2 C         140.7668  138.9859  161.1321 C.2     1  UNL1        0.0642
      3 C         139.5047  138.3248  160.6632 C.3     1  UNL1        0.0383
      4 C         138.3185  138.2393  161.5773 C.3     1  UNL1        0.0559
      5 C         138.3944  138.8151  162.9603 C.3     1  UNL1        0.2063
      6 N         139.6565  139.4762  163.4293 N.pl3   1  UNL1       -0.1533
      7 C         140.8427  139.5617  162.5152 C.2     1  UNL1        0.3682
      8 N         141.9440  140.2673  163.2496 N.2     1  UNL1        0.1587
      9 O         141.4384  140.6179  164.6176 O.2     1  UNL1       -0.2360
     10 C         140.0246  140.1290  164.7286 C.3     1  UNL1        0.3561
     11 C         140.1005  140.7047  166.1116 C.ar    1  UNL1        0.0624
     12 C         140.4835  142.1420  166.3057 C.ar    1  UNL1        0.0056
     13 C         140.5593  142.7178  167.6888 C.ar    1  UNL1        0.0296
     14 C         140.2523  141.8562  168.8777 C.ar    1  UNL1        0.1401
     15 F         140.3282  142.4319  170.2607 F       1  UNL1       -0.2042
     16 C         139.8694  140.4190  168.6836 C.ar    1  UNL1        0.0296
     17 C         139.7935  139.8433  167.3005 C.ar    1  UNL1        0.0056
     18 C         142.6680  136.7549  157.0760 C.ar    1  UNL1        0.1547
     19 C         142.7439  137.3307  158.4590 C.ar    1  UNL1        0.0384
     20 C         141.8772  138.4957  158.8350 C.ar    1  UNL1        0.0030
     21 C         140.9345  139.0850  157.8280 C.ar    1  UNL1        0.0017
     22 C         140.8586  138.5093  156.4449 C.ar    1  UNL1        0.0206
     23 C         141.7254  137.3442  156.0690 C.ar    1  UNL1        0.0994
     24 N         141.6495  136.7685  154.6859 N.ar    1  UNL1       -0.2839
     25 C         142.1543  137.4180  153.4316 C.ar    1  UNL1        0.1826
     26 N         141.8723  136.4931  152.2848 N.ar    1  UNL1       -0.2280
     27 C         141.1932  135.2719  152.8304 C.ar    1  UNL1        0.0786
     28 C         140.7326  134.0884  152.0323 C.3     1  UNL1        0.0538
     29 C         141.0555  135.4422  154.3144 C.ar    1  UNL1        0.0963
     30 C         143.2469  134.2289  157.2611 C.3     1  UNL1        0.2525
     31 O         143.5348  135.5898  156.7000 O.3     1  UNL1       -0.4700
     32 C         138.6267  139.7605  165.1288 C.3     1  UNL1        0.2342
     33 O         137.5248  140.7726  165.0229 O.3     1  UNL1       -0.3751
     34 H         137.6878  141.4949  165.6494 H       1  UNL1        0.2107
@<TRIPOS>BOND
     1    30    31    1
     2    31    18    1
     3    18    19   ar
     4    19    20   ar
     5    20     1    1
     6     1     2    2
     7     2     3    1
     8     3     4    1
     9     4     5    1
    10     5     6    1
    11     6     7    1
    12     7     8    2
    13     8     9    1
    14     9    10    1
    15    10    32    1
    16    32    33    1
    17    10    11    1
    18    11    12   ar
    19    12    13   ar
    20    13    14   ar
    21    14    15    1
    22    14    16   ar
    23    16    17   ar
    24    20    21   ar
    25    21    22   ar
    26    22    23   ar
    27    23    24    1
    28    24    25   ar
    29    25    26   ar
    30    26    27   ar
    31    27    28    1
    32    27    29   ar
    33    23    18   ar
    34    29    24   ar
    35     7     2    1
    36    17    11   ar
    37    10     6    1
    38    33    34    1
@<TRIPOS>MOLECULE
*****
 34 38 0 0 0
SMALL
GASTEIGER

@<TRIPOS>ATOM
      1 C         140.7490  140.2082  160.3542 C.2     1  UNL1        0.0033
      2 C         140.1936  139.5554  161.5853 C.2     1  UNL1        0.0642
      3 C         139.2742  138.3769  161.4595 C.3     1  UNL1        0.0383
      4 C         138.7189  137.7241  162.6906 C.3     1  UNL1        0.0559
      5 C         139.0830  138.2499  164.0474 C.3     1  UNL1        0.2063
      6 N         140.0024  139.4284  164.1732 N.pl3   1  UNL1       -0.1533
      7 C         140.5577  140.0811  162.9422 C.2     1  UNL1        0.3682
      8 N         141.4341  141.2187  163.3758 N.2     1  UNL1        0.1587
      9 O         141.4204  141.2689  164.8749 O.2     1  UNL1       -0.2360
     10 C         140.5356  140.1625  165.3677 C.3     1  UNL1        0.3561
     11 C         140.8997  140.6882  166.7246 C.ar    1  UNL1        0.0624
     12 C         141.6494  139.8182  167.6896 C.ar    1  UNL1        0.0056
     13 C         142.0135  140.3440  169.0464 C.ar    1  UNL1        0.0296
     14 C         141.6279  141.7397  169.4383 C.ar    1  UNL1        0.1401
     15 F         141.9920  142.2654  170.7951 F       1  UNL1       -0.2042
     16 C         140.8782  142.6095  168.4732 C.ar    1  UNL1        0.0296
     17 C         140.5141  142.0838  167.1164 C.ar    1  UNL1        0.0056
     18 C         140.6935  137.9265  157.1076 C.ar    1  UNL1        0.1547
     19 C         141.0576  138.4523  158.4644 C.ar    1  UNL1        0.0384
     20 C         140.3849  139.6824  158.9974 C.ar    1  UNL1        0.0030
     21 C         139.3480  140.3869  158.1735 C.ar    1  UNL1        0.0017
     22 C         138.9839  139.8612  156.8167 C.ar    1  UNL1        0.0206
     23 C         139.6567  138.6309  156.2837 C.ar    1  UNL1        0.0994
     24 N         139.2926  138.1052  154.9269 N.ar    1  UNL1       -0.2839
     25 C         140.2053  138.0222  153.7394 C.ar    1  UNL1        0.1826
     26 N         139.4287  137.4358  152.5979 N.ar    1  UNL1       -0.2280
     27 C         138.0359  137.1565  153.0798 C.ar    1  UNL1        0.0786
     28 C         136.9227  136.5669  152.2654 C.3     1  UNL1        0.0538
     29 C         137.9519  137.5702  154.5192 C.ar    1  UNL1        0.0963
     30 C         142.8635  136.6077  156.5582 C.3     1  UNL1        0.2525
     31 O         141.3663  136.6963  156.5746 O.3     1  UNL1       -0.4700
     32 C         139.7269  139.1659  166.1442 C.3     1  UNL1        0.2342
     33 O         138.4224  139.5760  166.7608 O.3     1  UNL1       -0.3751
     34 H         138.5858  140.2307  167.4576 H       1  UNL1        0.2107
@<TRIPOS>BOND
     1    30    31    1
     2    31    18    1
     3    18    19   ar
     4    19    20   ar
     5    20     1    1
     6     1     2    2
     7     2     3    1
     8     3     4    1
     9     4     5    1
    10     5     6    1
    11     6     7    1
    12     7     8    2
    13     8     9    1
    14     9    10    1
    15    10    32    1
    16    32    33    1
    17    10    11    1
    18    11    12   ar
    19    12    13   ar
    20    13    14   ar
    21    14    15    1
    22    14    16   ar
    23    16    17   ar
    24    20    21   ar
    25    21    22   ar
    26    22    23   ar
    27    23    24    1
    28    24    25   ar
    29    25    26   ar
    30    26    27   ar
    31    27    28    1
    32    27    29   ar
    33    23    18   ar
    34    29    24   ar
    35     7     2    1
    36    17    11   ar
    37    10     6    1
    38    33    34    1
@<TRIPOS>MOLECULE
*****
 34 38 0 0 0
SMALL
GASTEIGER

@<TRIPOS>ATOM
      1 C         140.1695  136.0535  154.2544 C.2     1  UNL1        0.0033
      2 C         141.2130  135.7139  155.2771 C.2     1  UNL1        0.0642
      3 C         141.7167  136.7711  156.2143 C.3     1  UNL1        0.0383
      4 C         142.7602  136.4315  157.2369 C.3     1  UNL1        0.0559
      5 C         143.2998  135.0345  157.3224 C.3     1  UNL1        0.2063
      6 N         142.7961  133.9773  156.3853 N.pl3   1  UNL1       -0.1533
      7 C         141.7526  134.3169  155.3626 C.2     1  UNL1        0.3682
      8 N         141.4498  133.0742  154.5789 N.2     1  UNL1        0.1587
      9 O         142.3062  131.9666  155.1172 O.2     1  UNL1       -0.2360
     10 C         143.1382  132.5247  156.2336 C.3     1  UNL1        0.3561
     11 C         143.6778  131.1277  156.3191 C.ar    1  UNL1        0.0624
     12 C         143.4642  130.3160  157.5623 C.ar    1  UNL1        0.0056
     13 C         144.0038  128.9190  157.6478 C.ar    1  UNL1        0.0296
     14 C         144.7571  128.3339  156.4901 C.ar    1  UNL1        0.1401
     15 F         145.2968  126.9369  156.5756 F       1  UNL1       -0.2042
     16 C         144.9708  129.1456  155.2470 C.ar    1  UNL1        0.0296
     17 C         144.4311  130.5426  155.1615 C.ar    1  UNL1        0.0056
     18 C         137.8133  139.2024  154.7858 C.ar    1  UNL1        0.1547
     19 C         138.3529  137.8055  154.8713 C.ar    1  UNL1        0.0384
     20 C         139.6298  137.4504  154.1689 C.ar    1  UNL1        0.0030
     21 C         140.3672  138.4924  153.3810 C.ar    1  UNL1        0.0017
     22 C         139.8275  139.8893  153.2955 C.ar    1  UNL1        0.0206
     23 C         138.5505  140.2443  153.9979 C.ar    1  UNL1        0.0994
     24 N         138.0109  141.6413  153.9124 N.ar    1  UNL1       -0.2839
     25 C         137.0132  142.1413  152.9101 C.ar    1  UNL1        0.1826
     26 N         136.7599  143.5925  153.1925 N.ar    1  UNL1       -0.2280
     27 C         137.6010  143.9895  154.3693 C.ar    1  UNL1        0.0786
     28 C         137.6588  145.3529  154.9919 C.3     1  UNL1        0.0538
     29 C         138.3741  142.7835  154.8143 C.ar    1  UNL1        0.0963
     30 C         135.2265  139.4443  154.7660 C.3     1  UNL1        0.2525
     31 O         136.5363  139.5574  155.4883 O.3     1  UNL1       -0.4700
     32 C         144.0830  132.7907  157.3679 C.3     1  UNL1        0.2342
     33 O         145.5632  132.6763  157.1536 O.3     1  UNL1       -0.3751
     34 H         145.7921  131.7528  156.9649 H       1  UNL1        0.2107
@<TRIPOS>BOND
     1    30    31    1
     2    31    18    1
     3    18    19   ar
     4    19    20   ar
     5    20     1    1
     6     1     2    2
     7     2     3    1
     8     3     4    1
     9     4     5    1
    10     5     6    1
    11     6     7    1
    12     7     8    2
    13     8     9    1
    14     9    10    1
    15    10    32    1
    16    32    33    1
    17    10    11    1
    18    11    12   ar
    19    12    13   ar
    20    13    14   ar
    21    14    15    1
    22    14    16   ar
    23    16    17   ar
    24    20    21   ar
    25    21    22   ar
    26    22    23   ar
    27    23    24    1
    28    24    25   ar
    29    25    26   ar
    30    26    27   ar
    31    27    28    1
    32    27    29   ar
    33    23    18   ar
    34    29    24   ar
    35     7     2    1
    36    17    11   ar
    37    10     6    1
    38    33    34    1
@<TRIPOS>MOLECULE
*****
 34 38 0 0 0
SMALL
GASTEIGER

@<TRIPOS>ATOM
      1 C         140.8258  138.6142  161.7142 C.2     1  UNL1        0.0033
      2 C         141.4011  139.8341  162.3707 C.2     1  UNL1        0.0642
      3 C         142.1964  140.8161  161.5625 C.3     1  UNL1        0.0383
      4 C         142.7717  142.0360  162.2190 C.3     1  UNL1        0.0559
      5 C         142.5517  142.2738  163.6835 C.3     1  UNL1        0.2063
      6 N         141.7564  141.2918  164.4917 N.pl3   1  UNL1       -0.1533
      7 C         141.1811  140.0720  163.8352 C.2     1  UNL1        0.3682
      8 N         140.4458  139.2864  164.8803 N.2     1  UNL1        0.1587
      9 O         140.5666  140.0207  166.1827 O.2     1  UNL1       -0.2360
     10 C         141.3766  141.2602  165.9425 C.3     1  UNL1        0.3561
     11 C         141.1566  141.4980  167.4070 C.ar    1  UNL1        0.0624
     12 C         141.4857  140.4223  168.3993 C.ar    1  UNL1        0.0056
     13 C         141.2657  140.6601  169.8639 C.ar    1  UNL1        0.0296
     14 C         140.7166  141.9738  170.3362 C.ar    1  UNL1        0.1401
     15 F         140.4966  142.2116  171.8008 F       1  UNL1       -0.2042
     16 C         140.3876  143.0494  169.3440 C.ar    1  UNL1        0.0296
     17 C         140.6076  142.8116  167.8794 C.ar    1  UNL1        0.0056
     18 C         140.1327  138.3147  157.8181 C.ar    1  UNL1        0.1547
     19 C         139.9127  138.5525  159.2827 C.ar    1  UNL1        0.0384
     20 C         141.0458  138.3763  160.2496 C.ar    1  UNL1        0.0030
     21 C         142.3989  137.9623  159.7520 C.ar    1  UNL1        0.0017
     22 C         142.6190  137.7244  158.2874 C.ar    1  UNL1        0.0206
     23 C         141.4858  137.9006  157.3205 C.ar    1  UNL1        0.0994
     24 N         141.7058  137.6628  155.8559 N.ar    1  UNL1       -0.2839
     25 C         142.2406  138.6600  154.8712 C.ar    1  UNL1        0.1826
     26 N         142.2950  137.9995  153.5256 N.ar    1  UNL1       -0.2280
     27 C         141.7938  136.5940  153.6785 C.ar    1  UNL1        0.0786
     28 C         141.6771  135.5754  152.5836 C.3     1  UNL1        0.0538
     29 C         141.4296  136.3859  155.1187 C.ar    1  UNL1        0.0963
     30 C         138.7827  139.8163  156.1833 C.3     1  UNL1        0.2525
     31 O         138.9995  138.4909  156.8511 O.3     1  UNL1       -0.4700
     32 C         142.1407  142.5493  166.0084 C.3     1  UNL1        0.2342
     33 O         143.5320  142.5688  166.5686 O.3     1  UNL1       -0.3751
     34 H         143.5035  142.3485  167.5128 H       1  UNL1        0.2107
@<TRIPOS>BOND
     1    30    31    1
     2    31    18    1
     3    18    19   ar
     4    19    20   ar
     5    20     1    1
     6     1     2    2
     7     2     3    1
     8     3     4    1
     9     4     5    1
    10     5     6    1
    11     6     7    1
    12     7     8    2
    13     8     9    1
    14     9    10    1
    15    10    32    1
    16    32    33    1
    17    10    11    1
    18    11    12   ar
    19    12    13   ar
    20    13    14   ar
    21    14    15    1
    22    14    16   ar
    23    16    17   ar
    24    20    21   ar
    25    21    22   ar
    26    22    23   ar
    27    23    24    1
    28    24    25   ar
    29    25    26   ar
    30    26    27   ar
    31    27    28    1
    32    27    29   ar
    33    23    18   ar
    34    29    24   ar
    35     7     2    1
    36    17    11   ar
    37    10     6    1
    38    33    34    1
@<TRIPOS>MOLECULE
*****
 34 38 0 0 0
SMALL
GASTEIGER

@<TRIPOS>ATOM
      1 C         139.8839  143.7790  161.7171 C.2     1  UNL1        0.0033
      2 C         141.0309  143.3245  162.5703 C.2     1  UNL1        0.0642
      3 C         142.4142  143.2586  161.9942 C.3     1  UNL1        0.0383
      4 C         143.5611  142.8041  162.8474 C.3     1  UNL1        0.0559
      5 C         143.3246  142.4156  164.2768 C.3     1  UNL1        0.2063
      6 N         141.9413  142.4816  164.8530 N.pl3   1  UNL1       -0.1533
      7 C         140.7944  142.9360  163.9997 C.2     1  UNL1        0.3682
      8 N         139.5505  142.8994  164.8373 N.2     1  UNL1        0.1587
      9 O         139.9287  142.4222  166.2081 O.2     1  UNL1       -0.2360
     10 C         141.4063  142.1640  166.2178 C.3     1  UNL1        0.3561
     11 C         141.1698  141.7755  167.6472 C.ar    1  UNL1        0.0624
     12 C         140.6267  142.7819  168.6180 C.ar    1  UNL1        0.0056
     13 C         140.3903  142.3934  170.0474 C.ar    1  UNL1        0.0296
     14 C         140.6969  140.9985  170.5060 C.ar    1  UNL1        0.1401
     15 F         140.4605  140.6100  171.9354 F       1  UNL1       -0.2042
     16 C         141.2400  139.9922  169.5353 C.ar    1  UNL1        0.0296
     17 C         141.4764  140.3807  168.1059 C.ar    1  UNL1        0.0056
     18 C         139.8236  143.6977  157.7498 C.ar    1  UNL1        0.1547
     19 C         139.5871  143.3092  159.1791 C.ar    1  UNL1        0.0384
     20 C         140.1204  144.1675  160.2877 C.ar    1  UNL1        0.0030
     21 C         140.8901  145.4144  159.9669 C.ar    1  UNL1        0.0017
     22 C         141.1265  145.8029  158.5375 C.ar    1  UNL1        0.0206
     23 C         140.5933  144.9446  157.4289 C.ar    1  UNL1        0.0994
     24 N         140.8297  145.3331  155.9995 N.ar    1  UNL1       -0.2839
     25 C         139.8880  146.1127  155.1304 C.ar    1  UNL1        0.1826
     26 N         140.5257  146.2716  153.7820 N.ar    1  UNL1       -0.2280
     27 C         141.8615  145.5903  153.8178 C.ar    1  UNL1        0.0786
     28 C         142.8380  145.5040  152.6824 C.3     1  UNL1        0.0538
     29 C         142.0494  145.0102  155.1883 C.ar    1  UNL1        0.0963
     30 C         137.8839  143.0295  156.1556 C.3     1  UNL1        0.2525
     31 O         139.2903  142.8394  156.6412 O.3     1  UNL1       -0.4700
     32 C         142.8344  141.8246  166.5264 C.3     1  UNL1        0.2342
     33 O         143.6689  142.7649  167.3446 O.3     1  UNL1       -0.3751
     34 H         143.8009  143.5909  166.8535 H       1  UNL1        0.2107
@<TRIPOS>BOND
     1    30    31    1
     2    31    18    1
     3    18    19   ar
     4    19    20   ar
     5    20     1    1
     6     1     2    2
     7     2     3    1
     8     3     4    1
     9     4     5    1
    10     5     6    1
    11     6     7    1
    12     7     8    2
    13     8     9    1
    14     9    10    1
    15    10    32    1
    16    32    33    1
    17    10    11    1
    18    11    12   ar
    19    12    13   ar
    20    13    14   ar
    21    14    15    1
    22    14    16   ar
    23    16    17   ar
    24    20    21   ar
    25    21    22   ar
    26    22    23   ar
    27    23    24    1
    28    24    25   ar
    29    25    26   ar
    30    26    27   ar
    31    27    28    1
    32    27    29   ar
    33    23    18   ar
    34    29    24   ar
    35     7     2    1
    36    17    11   ar
    37    10     6    1
    38    33    34    1
