@<TRIPOS>MOLECULE
*****
 30 34 0 0 0
SMALL
GASTEIGER

@<TRIPOS>ATOM
      1 N         143.7663  142.3676  165.4095 N.pl3   1  UNL1       -0.3133
      2 C         142.9788  142.0740  166.6520 C.2     1  UNL1        0.2770
      3 N         141.7259  141.2528  166.7281 N.2     1  UNL1       -0.2204
      4 C         141.2787  141.2213  168.1597 C.3     1  UNL1        0.1537
      5 C         142.2553  142.0230  168.9681 C.3     1  UNL1        0.2350
      6 O         143.3060  142.5500  168.0363 O.2     1  UNL1       -0.4478
      7 C         140.3898  140.4546  167.2257 C.ar    1  UNL1        0.0367
      8 C         140.7120  140.3968  165.7619 C.ar    1  UNL1        0.0153
      9 C         139.8231  139.6302  164.8280 C.ar    1  UNL1        0.0505
     10 C         138.6120  138.9214  165.3580 C.ar    1  UNL1        0.0178
     11 C         138.2898  138.9792  166.8219 C.ar    1  UNL1        0.0379
     12 C         139.1787  139.7459  167.7557 C.ar    1  UNL1        0.1364
     13 O         138.8566  139.8037  169.2196 O.3     1  UNL1       -0.4756
     14 C         139.7455  140.5703  170.1535 C.3     1  UNL1        0.2074
     15 C         140.9566  141.2791  169.6235 C.3     1  UNL1        0.0666
     16 C         142.1690  142.1309  169.8567 C.3     1  UNL1        0.0061
     17 C         141.2838  141.7551  171.0078 C.3     1  UNL1        0.0061
     18 H         143.4696  142.0083  164.5422 H       1  UNL1        0.1466
     19 H         144.5798  142.9197  165.4613 H       1  UNL1        0.1466
     20 N         140.1453  139.5723  163.3642 N.am    1  UNL1       -0.2791
     21 C         140.7627  138.3362  162.7804 C.2     1  UNL1        0.2672
     22 O         141.0580  137.1580  163.6604 O.2     1  UNL1       -0.2682
     23 H         139.9515  140.3457  162.7866 H       1  UNL1        0.1552
     24 C         141.0849  138.2784  161.3166 C.ar    1  UNL1        0.1349
     25 C         142.4606  137.8851  160.8664 C.ar    1  UNL1        0.0261
     26 C         142.7827  137.8272  159.4024 C.ar    1  UNL1        0.0329
     27 C         141.7292  138.1628  158.3888 C.ar    1  UNL1        0.1592
     28 F         142.0514  138.1049  156.9250 F       1  UNL1       -0.2025
     29 C         140.3535  138.5561  158.8390 C.ar    1  UNL1        0.1285
     30 N         140.0313  138.6139  160.3029 N.ar    1  UNL1       -0.2369
@<TRIPOS>BOND
     1     1     2    1
     2     2     3    2
     3     3     4    1
     4     4     5    1
     5     5     6    1
     6     4     7    1
     7     7     8   ar
     8     8     9   ar
     9     9    20    1
    10    20    21   am
    11    21    22    2
    12    21    24    1
    13    24    25   ar
    14    25    26   ar
    15    26    27   ar
    16    27    28    1
    17    27    29   ar
    18    29    30   ar
    19     9    10   ar
    20    10    11   ar
    21    11    12   ar
    22    12    13    1
    23    13    14    1
    24    14    15    1
    25    15    16    1
    26    16    17    1
    27     6     2    1
    28    12     7   ar
    29    17    15    1
    30    15     4    1
    31    30    24   ar
    32     1    18    1
    33     1    19    1
    34    20    23    1
@<TRIPOS>MOLECULE
*****
 30 34 0 0 0
SMALL
GASTEIGER

@<TRIPOS>ATOM
      1 N         143.9630  145.1116  162.5740 N.pl3   1  UNL1       -0.3133
      2 C         142.5187  144.8276  162.8630 C.2     1  UNL1        0.2770
      3 N         141.5414  144.1852  161.9238 N.2     1  UNL1       -0.2204
      4 C         140.2169  144.0967  162.6224 C.3     1  UNL1        0.1537
      5 C         140.3757  144.6845  163.9933 C.3     1  UNL1        0.2350
      6 O         141.7983  145.1362  164.1420 O.2     1  UNL1       -0.4478
      7 C         140.2100  143.5419  161.2288 C.ar    1  UNL1        0.0367
      8 C         141.4647  143.5622  160.4072 C.ar    1  UNL1        0.0153
      9 C         141.4578  143.0074  159.0135 C.ar    1  UNL1        0.0505
     10 C         140.1960  142.4322  158.4416 C.ar    1  UNL1        0.0178
     11 C         138.9412  142.4118  159.2633 C.ar    1  UNL1        0.0379
     12 C         138.9482  142.9667  160.6568 C.ar    1  UNL1        0.1364
     13 O         137.6934  142.9463  161.4785 O.3     1  UNL1       -0.4756
     14 C         137.7004  143.5012  162.8721 C.3     1  UNL1        0.2074
     15 C         138.9621  144.0764  163.4440 C.3     1  UNL1        0.0666
     16 C         139.6946  144.7288  164.5788 C.3     1  UNL1        0.0061
     17 C         138.2417  144.3850  164.7230 C.3     1  UNL1        0.0061
     18 H         144.3467  144.8707  161.6999 H       1  UNL1        0.1466
     19 H         144.5272  145.5389  163.2583 H       1  UNL1        0.1466
     20 N         142.7125  143.0277  158.1919 N.am    1  UNL1       -0.2791
     21 C         143.7716  141.9890  158.4142 C.2     1  UNL1        0.2672
     22 O         143.5759  140.9299  159.4582 O.2     1  UNL1       -0.2682
     23 H         142.8410  143.7229  157.5067 H       1  UNL1        0.1552
     24 C         145.0263  142.0094  157.5926 C.ar    1  UNL1        0.1349
     25 C         145.1123  141.1971  156.3345 C.ar    1  UNL1        0.0261
     26 C         146.3672  141.2175  155.5129 C.ar    1  UNL1        0.0329
     27 C         147.5360  142.0501  155.9494 C.ar    1  UNL1        0.1592
     28 F         148.7907  142.0705  155.1277 F       1  UNL1       -0.2025
     29 C         147.4500  142.8624  157.2074 C.ar    1  UNL1        0.1285
     30 N         146.1952  142.8420  158.0291 N.ar    1  UNL1       -0.2369
@<TRIPOS>BOND
     1     1     2    1
     2     2     3    2
     3     3     4    1
     4     4     5    1
     5     5     6    1
     6     4     7    1
     7     7     8   ar
     8     8     9   ar
     9     9    20    1
    10    20    21   am
    11    21    22    2
    12    21    24    1
    13    24    25   ar
    14    25    26   ar
    15    26    27   ar
    16    27    28    1
    17    27    29   ar
    18    29    30   ar
    19     9    10   ar
    20    10    11   ar
    21    11    12   ar
    22    12    13    1
    23    13    14    1
    24    14    15    1
    25    15    16    1
    26    16    17    1
    27     6     2    1
    28    12     7   ar
    29    17    15    1
    30    15     4    1
    31    30    24   ar
    32     1    18    1
    33     1    19    1
    34    20    23    1
@<TRIPOS>MOLECULE
*****
 30 34 0 0 0
SMALL
GASTEIGER

@<TRIPOS>ATOM
      1 N         139.6315  145.3455  163.8943 N.pl3   1  UNL1       -0.3133
      2 C         140.1382  145.1965  162.4903 C.2     1  UNL1        0.2770
      3 N         141.3409  144.4069  162.0661 N.2     1  UNL1       -0.2204
      4 C         141.4770  144.5334  160.5776 C.3     1  UNL1        0.1537
      5 C         140.3585  145.4013  160.0820 C.3     1  UNL1        0.2350
      6 O         139.5310  145.8111  161.2640 O.2     1  UNL1       -0.4478
      7 C         142.5365  143.6859  161.2174 C.ar    1  UNL1        0.0367
      8 C         142.5286  143.4690  162.7016 C.ar    1  UNL1        0.0153
      9 C         143.5881  142.6214  163.3413 C.ar    1  UNL1        0.0505
     10 C         144.6555  141.9909  162.4968 C.ar    1  UNL1        0.0178
     11 C         144.6633  142.2078  161.0126 C.ar    1  UNL1        0.0379
     12 C         143.6038  143.0553  160.3729 C.ar    1  UNL1        0.1364
     13 O         143.6117  143.2723  158.8886 O.3     1  UNL1       -0.4756
     14 C         142.5522  144.1198  158.2490 C.3     1  UNL1        0.2074
     15 C         141.4849  144.7503  159.0935 C.3     1  UNL1        0.0666
     16 C         140.2570  145.6037  159.2117 C.3     1  UNL1        0.0061
     17 C         140.8777  145.3649  157.8672 C.3     1  UNL1        0.0061
     18 H         140.1011  144.9011  164.6368 H       1  UNL1        0.1466
     19 H         138.8295  145.8876  164.0733 H       1  UNL1        0.1466
     20 N         143.5803  142.4045  164.8255 N.am    1  UNL1       -0.2791
     21 C         142.7688  141.2899  165.4163 C.2     1  UNL1        0.2672
     22 O         141.9652  140.3921  164.5229 O.2     1  UNL1       -0.2682
     23 H         144.1077  142.9938  165.4119 H       1  UNL1        0.1552
     24 C         142.7609  141.0729  166.9005 C.ar    1  UNL1        0.1349
     25 C         143.0921  142.2061  167.8258 C.ar    1  UNL1        0.0261
     26 C         143.0843  141.9891  169.3101 C.ar    1  UNL1        0.0329
     27 C         142.7452  140.6391  169.8689 C.ar    1  UNL1        0.1592
     28 F         142.7373  140.4221  171.3531 F       1  UNL1       -0.2025
     29 C         142.4140  139.5059  168.9436 C.ar    1  UNL1        0.1285
     30 N         142.4218  139.7228  167.4594 N.ar    1  UNL1       -0.2369
@<TRIPOS>BOND
     1     1     2    1
     2     2     3    2
     3     3     4    1
     4     4     5    1
     5     5     6    1
     6     4     7    1
     7     7     8   ar
     8     8     9   ar
     9     9    20    1
    10    20    21   am
    11    21    22    2
    12    21    24    1
    13    24    25   ar
    14    25    26   ar
    15    26    27   ar
    16    27    28    1
    17    27    29   ar
    18    29    30   ar
    19     9    10   ar
    20    10    11   ar
    21    11    12   ar
    22    12    13    1
    23    13    14    1
    24    14    15    1
    25    15    16    1
    26    16    17    1
    27     6     2    1
    28    12     7   ar
    29    17    15    1
    30    15     4    1
    31    30    24   ar
    32     1    18    1
    33     1    19    1
    34    20    23    1
@<TRIPOS>MOLECULE
*****
 30 34 0 0 0
SMALL
GASTEIGER

@<TRIPOS>ATOM
      1 N         141.0781  145.8896  162.8734 N.pl3   1  UNL1       -0.3133
      2 C         140.6117  145.1758  161.6392 C.2     1  UNL1        0.2770
      3 N         139.8384  143.8911  161.6029 N.2     1  UNL1       -0.2204
      4 C         139.5855  143.5428  160.1660 C.3     1  UNL1        0.1537
      5 C         140.2025  144.6123  159.3143 C.3     1  UNL1        0.2350
      6 O         140.8368  145.6215  160.2247 O.2     1  UNL1       -0.4478
      7 C         139.0205  142.5537  161.1421 C.ar    1  UNL1        0.0367
      8 C         139.1956  142.7708  162.6159 C.ar    1  UNL1        0.0153
      9 C         138.6307  141.7817  163.5920 C.ar    1  UNL1        0.0505
     10 C         137.8907  140.5757  163.0942 C.ar    1  UNL1        0.0178
     11 C         137.7156  140.3587  161.6203 C.ar    1  UNL1        0.0379
     12 C         138.2805  141.3477  160.6443 C.ar    1  UNL1        0.1364
     13 O         138.1054  141.1307  159.1703 O.3     1  UNL1       -0.4756
     14 C         138.6703  142.1197  158.1943 C.3     1  UNL1        0.2074
     15 C         139.4104  143.3257  158.6921 C.3     1  UNL1        0.0666
     16 C         140.1638  144.5930  158.4160 C.3     1  UNL1        0.0061
     17 C         139.6354  143.7715  157.2777 C.3     1  UNL1        0.0061
     18 H         140.8805  145.5159  163.7625 H       1  UNL1        0.1466
     19 H         141.5819  146.7317  162.7942 H       1  UNL1        0.1466
     20 N         138.8058  141.9987  165.0658 N.am    1  UNL1       -0.2791
     21 C         139.8677  141.2482  165.8135 C.2     1  UNL1        0.2672
     22 O         140.7546  140.2807  165.0873 O.2     1  UNL1       -0.2682
     23 H         138.2237  142.6338  165.5424 H       1  UNL1        0.1552
     24 C         140.0428  141.4653  167.2873 C.ar    1  UNL1        0.1349
     25 C         139.7696  140.3461  168.2479 C.ar    1  UNL1        0.0261
     26 C         139.9448  140.5631  169.7218 C.ar    1  UNL1        0.0329
     27 C         140.3931  141.8994  170.2350 C.ar    1  UNL1        0.1592
     28 F         140.5682  142.1164  171.7088 F       1  UNL1       -0.2025
     29 C         140.6663  143.0186  169.2744 C.ar    1  UNL1        0.1285
     30 N         140.4912  142.8016  167.8006 N.ar    1  UNL1       -0.2369
@<TRIPOS>BOND
     1     1     2    1
     2     2     3    2
     3     3     4    1
     4     4     5    1
     5     5     6    1
     6     4     7    1
     7     7     8   ar
     8     8     9   ar
     9     9    20    1
    10    20    21   am
    11    21    22    2
    12    21    24    1
    13    24    25   ar
    14    25    26   ar
    15    26    27   ar
    16    27    28    1
    17    27    29   ar
    18    29    30   ar
    19     9    10   ar
    20    10    11   ar
    21    11    12   ar
    22    12    13    1
    23    13    14    1
    24    14    15    1
    25    15    16    1
    26    16    17    1
    27     6     2    1
    28    12     7   ar
    29    17    15    1
    30    15     4    1
    31    30    24   ar
    32     1    18    1
    33     1    19    1
    34    20    23    1
@<TRIPOS>MOLECULE
*****
 30 34 0 0 0
SMALL
GASTEIGER

@<TRIPOS>ATOM
      1 N         137.7917  142.6699  162.6579 N.pl3   1  UNL1       -0.3133
      2 C         138.6971  142.3230  163.8024 C.2     1  UNL1        0.2770
      3 N         140.1248  142.7553  163.9594 N.2     1  UNL1       -0.2204
      4 C         140.6438  142.1824  165.2449 C.3     1  UNL1        0.1537
      5 C         139.5368  141.3962  165.8824 C.3     1  UNL1        0.2350
      6 O         138.3337  141.4831  164.9909 O.2     1  UNL1       -0.4478
      7 C         141.6502  143.0006  164.4913 C.ar    1  UNL1        0.0367
      8 C         141.2733  143.6372  163.1865 C.ar    1  UNL1        0.0153
      9 C         142.2796  144.4555  162.4328 C.ar    1  UNL1        0.0505
     10 C         143.6628  144.6370  162.9841 C.ar    1  UNL1        0.0178
     11 C         144.0396  144.0003  164.2890 C.ar    1  UNL1        0.0379
     12 C         143.0333  143.1821  165.0426 C.ar    1  UNL1        0.1364
     13 O         143.4102  142.5455  166.3475 O.3     1  UNL1       -0.4756
     14 C         142.4039  141.7273  167.1010 C.3     1  UNL1        0.2074
     15 C         141.0207  141.5458  166.5498 C.3     1  UNL1        0.0666
     16 C         139.6412  140.9686  166.6666 C.3     1  UNL1        0.0061
     17 C         140.6573  140.7058  167.7382 C.3     1  UNL1        0.0061
     18 H         138.1238  143.2306  161.9199 H       1  UNL1        0.1466
     19 H         136.8653  142.3368  162.6446 H       1  UNL1        0.1466
     20 N         141.9028  145.0921  161.1280 N.am    1  UNL1       -0.2791
     21 C         141.9094  144.2793  159.8673 C.2     1  UNL1        0.2672
     22 O         142.2928  142.8298  159.9115 O.2     1  UNL1       -0.2682
     23 H         141.6511  146.0434  161.0990 H       1  UNL1        0.1552
     24 C         141.5325  144.9159  158.5625 C.ar    1  UNL1        0.1349
     25 C         142.3795  144.6897  157.3453 C.ar    1  UNL1        0.0261
     26 C         142.0025  145.3264  156.0405 C.ar    1  UNL1        0.0329
     27 C         140.7787  146.1892  155.9528 C.ar    1  UNL1        0.1592
     28 F         140.4019  146.8259  154.6480 F       1  UNL1       -0.2025
     29 C         139.9317  146.4154  157.1700 C.ar    1  UNL1        0.1285
     30 N         140.3086  145.7788  158.4748 N.ar    1  UNL1       -0.2369
@<TRIPOS>BOND
     1     1     2    1
     2     2     3    2
     3     3     4    1
     4     4     5    1
     5     5     6    1
     6     4     7    1
     7     7     8   ar
     8     8     9   ar
     9     9    20    1
    10    20    21   am
    11    21    22    2
    12    21    24    1
    13    24    25   ar
    14    25    26   ar
    15    26    27   ar
    16    27    28    1
    17    27    29   ar
    18    29    30   ar
    19     9    10   ar
    20    10    11   ar
    21    11    12   ar
    22    12    13    1
    23    13    14    1
    24    14    15    1
    25    15    16    1
    26    16    17    1
    27     6     2    1
    28    12     7   ar
    29    17    15    1
    30    15     4    1
    31    30    24   ar
    32     1    18    1
    33     1    19    1
    34    20    23    1
@<TRIPOS>MOLECULE
*****
 30 34 0 0 0
SMALL
GASTEIGER

@<TRIPOS>ATOM
      1 N         141.4918  140.5098  171.1302 N.pl3   1  UNL1       -0.3133
      2 C         141.7985  140.9912  169.7430 C.2     1  UNL1        0.2770
      3 N         140.9703  140.7375  168.5185 N.2     1  UNL1       -0.2204
      4 C         141.6473  141.4003  167.3555 C.3     1  UNL1        0.1537
      5 C         142.8939  142.0637  167.8615 C.3     1  UNL1        0.2350
      6 O         142.9874  141.8108  169.3370 O.2     1  UNL1       -0.4478
      7 C         140.3755  140.6903  166.9974 C.ar    1  UNL1        0.0367
      8 C         139.5882  139.9807  168.0588 C.ar    1  UNL1        0.0153
      9 C         138.3163  139.2706  167.7007 C.ar    1  UNL1        0.0505
     10 C         137.8318  139.2702  166.2811 C.ar    1  UNL1        0.0178
     11 C         138.6191  139.9798  165.2197 C.ar    1  UNL1        0.0379
     12 C         139.8909  140.6898  165.5778 C.ar    1  UNL1        0.1364
     13 O         140.6783  141.3994  164.5164 O.3     1  UNL1       -0.4756
     14 C         141.9501  142.1094  164.8745 C.3     1  UNL1        0.2074
     15 C         142.4346  142.1099  166.2941 C.3     1  UNL1        0.0666
     16 C         143.4486  142.5201  167.3204 C.3     1  UNL1        0.0061
     17 C         143.6234  142.9295  165.8881 C.3     1  UNL1        0.0061
     18 H         140.6825  139.9748  171.2979 H       1  UNL1        0.1466
     19 H         142.0997  140.7289  171.8730 H       1  UNL1        0.1466
     20 N         137.5290  138.5610  168.7621 N.am    1  UNL1       -0.2791
     21 C         137.4849  139.1110  170.1570 C.2     1  UNL1        0.2672
     22 O         138.2280  140.3706  170.4904 O.2     1  UNL1       -0.2682
     23 H         137.0413  137.7343  168.5433 H       1  UNL1        0.1552
     24 C         136.6976  138.4015  171.2184 C.ar    1  UNL1        0.1349
     25 C         135.4706  139.0420  171.7964 C.ar    1  UNL1        0.0261
     26 C         134.6834  138.3324  172.8579 C.ar    1  UNL1        0.0329
     27 C         135.1231  136.9822  173.3413 C.ar    1  UNL1        0.1592
     28 F         134.3358  136.2727  174.4027 F       1  UNL1       -0.2025
     29 C         136.3501  136.3417  172.7632 C.ar    1  UNL1        0.1285
     30 N         137.1374  137.0512  171.7018 N.ar    1  UNL1       -0.2369
@<TRIPOS>BOND
     1     1     2    1
     2     2     3    2
     3     3     4    1
     4     4     5    1
     5     5     6    1
     6     4     7    1
     7     7     8   ar
     8     8     9   ar
     9     9    20    1
    10    20    21   am
    11    21    22    2
    12    21    24    1
    13    24    25   ar
    14    25    26   ar
    15    26    27   ar
    16    27    28    1
    17    27    29   ar
    18    29    30   ar
    19     9    10   ar
    20    10    11   ar
    21    11    12   ar
    22    12    13    1
    23    13    14    1
    24    14    15    1
    25    15    16    1
    26    16    17    1
    27     6     2    1
    28    12     7   ar
    29    17    15    1
    30    15     4    1
    31    30    24   ar
    32     1    18    1
    33     1    19    1
    34    20    23    1
@<TRIPOS>MOLECULE
*****
 30 34 0 0 0
SMALL
GASTEIGER

@<TRIPOS>ATOM
      1 N         144.9219  139.1626  163.1672 N.pl3   1  UNL1       -0.3133
      2 C         143.4727  138.8087  163.3252 C.2     1  UNL1        0.2770
      3 N         142.4607  138.7230  162.2215 N.2     1  UNL1       -0.2204
      4 C         141.1438  138.3396  162.8289 C.3     1  UNL1        0.1537
      5 C         141.3421  138.1883  164.3080 C.3     1  UNL1        0.2350
      6 O         142.7814  138.4782  164.6148 O.2     1  UNL1       -0.4478
      7 C         141.0981  138.5271  161.3413 C.ar    1  UNL1        0.0367
      8 C         142.3412  138.9120  160.5954 C.ar    1  UNL1        0.0153
      9 C         142.2954  139.0995  159.1078 C.ar    1  UNL1        0.0505
     10 C         141.0066  138.9021  158.3662 C.ar    1  UNL1        0.0178
     11 C         139.7634  138.5172  159.1123 C.ar    1  UNL1        0.0379
     12 C         139.8092  138.3297  160.5998 C.ar    1  UNL1        0.1364
     13 O         138.5661  137.9448  161.3459 O.3     1  UNL1       -0.4756
     14 C         138.6118  137.7573  162.8334 C.3     1  UNL1        0.2074
     15 C         139.9007  137.9547  163.5749 C.3     1  UNL1        0.0666
     16 C         140.6712  137.9605  164.8618 C.3     1  UNL1        0.0061
     17 C         139.2094  137.6243  164.8644 C.3     1  UNL1        0.0061
     18 H         145.2847  139.3648  162.2746 H       1  UNL1        0.1466
     19 H         145.5101  139.1928  163.9561 H       1  UNL1        0.1466
     20 N         143.5385  139.4844  158.3618 N.am    1  UNL1       -0.2791
     21 C         143.7900  140.9218  158.0144 C.2     1  UNL1        0.2672
     22 O         142.7984  141.9743  158.4130 O.2     1  UNL1       -0.2682
     23 H         144.1894  138.7936  158.1002 H       1  UNL1        0.1552
     24 C         145.0331  141.3067  157.2684 C.ar    1  UNL1        0.1349
     25 C         145.9094  142.4074  157.7886 C.ar    1  UNL1        0.0261
     26 C         147.1526  142.7923  157.0425 C.ar    1  UNL1        0.0329
     27 C         147.5194  142.0764  155.7764 C.ar    1  UNL1        0.1592
     28 F         148.7625  142.4613  155.0305 F       1  UNL1       -0.2025
     29 C         146.6431  140.9757  155.2563 C.ar    1  UNL1        0.1285
     30 N         145.4000  140.5908  156.0023 N.ar    1  UNL1       -0.2369
@<TRIPOS>BOND
     1     1     2    1
     2     2     3    2
     3     3     4    1
     4     4     5    1
     5     5     6    1
     6     4     7    1
     7     7     8   ar
     8     8     9   ar
     9     9    20    1
    10    20    21   am
    11    21    22    2
    12    21    24    1
    13    24    25   ar
    14    25    26   ar
    15    26    27   ar
    16    27    28    1
    17    27    29   ar
    18    29    30   ar
    19     9    10   ar
    20    10    11   ar
    21    11    12   ar
    22    12    13    1
    23    13    14    1
    24    14    15    1
    25    15    16    1
    26    16    17    1
    27     6     2    1
    28    12     7   ar
    29    17    15    1
    30    15     4    1
    31    30    24   ar
    32     1    18    1
    33     1    19    1
    34    20    23    1
@<TRIPOS>MOLECULE
*****
 30 34 0 0 0
SMALL
GASTEIGER

@<TRIPOS>ATOM
      1 N         137.4898  144.1174  162.6928 N.pl3   1  UNL1       -0.3133
      2 C         137.8023  142.7116  163.1126 C.2     1  UNL1        0.2770
      3 N         138.2287  141.5951  162.2063 N.2     1  UNL1       -0.2204
      4 C         138.4331  140.3690  163.0461 C.3     1  UNL1        0.1537
      5 C         138.1331  140.7279  164.4712 C.3     1  UNL1        0.2350
      6 O         137.7432  142.1757  164.5124 O.2     1  UNL1       -0.4478
      7 C         138.6989  140.1590  161.5848 C.ar    1  UNL1        0.0367
      8 C         138.5354  141.2972  160.6216 C.ar    1  UNL1        0.0153
      9 C         138.8012  141.0872  159.1603 C.ar    1  UNL1        0.0505
     10 C         139.2303  139.7390  158.6622 C.ar    1  UNL1        0.0178
     11 C         139.3938  138.6008  159.6254 C.ar    1  UNL1        0.0379
     12 C         139.1280  138.8108  161.0867 C.ar    1  UNL1        0.1364
     13 O         139.2915  137.6725  162.0499 O.3     1  UNL1       -0.4756
     14 C         139.0257  137.8825  163.5111 C.3     1  UNL1        0.2074
     15 C         138.5966  139.2308  164.0092 C.3     1  UNL1        0.0666
     16 C         138.1954  140.1304  165.1404 C.3     1  UNL1        0.0061
     17 C         138.5375  138.6948  165.4090 C.3     1  UNL1        0.0061
     18 H         137.5578  144.3748  161.7450 H       1  UNL1        0.1466
     19 H         137.2167  144.7827  163.3652 H       1  UNL1        0.1466
     20 N         138.6378  142.2255  158.1971 N.am    1  UNL1       -0.2791
     21 C         139.7222  143.2525  158.0588 C.2     1  UNL1        0.2672
     22 O         140.9701  143.1414  158.8837 O.2     1  UNL1       -0.2682
     23 H         137.8187  142.2984  157.6558 H       1  UNL1        0.1552
     24 C         139.5588  144.3907  157.0957 C.ar    1  UNL1        0.1349
     25 C         140.4310  145.6053  157.2149 C.ar    1  UNL1        0.0261
     26 C         140.2675  146.7435  156.2517 C.ar    1  UNL1        0.0329
     27 C         139.2319  146.6672  155.1693 C.ar    1  UNL1        0.1592
     28 F         139.0685  147.8054  154.2062 F       1  UNL1       -0.2025
     29 C         138.3597  145.4527  155.0501 C.ar    1  UNL1        0.1285
     30 N         138.5231  144.3145  156.0132 N.ar    1  UNL1       -0.2369
@<TRIPOS>BOND
     1     1     2    1
     2     2     3    2
     3     3     4    1
     4     4     5    1
     5     5     6    1
     6     4     7    1
     7     7     8   ar
     8     8     9   ar
     9     9    20    1
    10    20    21   am
    11    21    22    2
    12    21    24    1
    13    24    25   ar
    14    25    26   ar
    15    26    27   ar
    16    27    28    1
    17    27    29   ar
    18    29    30   ar
    19     9    10   ar
    20    10    11   ar
    21    11    12   ar
    22    12    13    1
    23    13    14    1
    24    14    15    1
    25    15    16    1
    26    16    17    1
    27     6     2    1
    28    12     7   ar
    29    17    15    1
    30    15     4    1
    31    30    24   ar
    32     1    18    1
    33     1    19    1
    34    20    23    1
@<TRIPOS>MOLECULE
*****
 30 34 0 0 0
SMALL
GASTEIGER

@<TRIPOS>ATOM
      1 N         140.1786  143.6996  165.2131 N.pl3   1  UNL1       -0.3133
      2 C         140.5132  142.9452  166.4657 C.2     1  UNL1        0.2770
      3 N         141.3389  141.6956  166.5482 N.2     1  UNL1       -0.2204
      4 C         141.4169  141.2861  167.9892 C.3     1  UNL1        0.1537
      5 C         140.6395  142.2826  168.7970 C.3     1  UNL1        0.2350
      6 O         140.0810  143.3079  167.8555 O.2     1  UNL1       -0.4478
      7 C         142.1551  140.3739  167.0548 C.ar    1  UNL1        0.0367
      8 C         142.1656  140.6578  165.5819 C.ar    1  UNL1        0.0153
      9 C         142.9038  139.7457  164.6475 C.ar    1  UNL1        0.0505
     10 C         143.6315  138.5497  165.1860 C.ar    1  UNL1        0.0178
     11 C         143.6210  138.2658  166.6589 C.ar    1  UNL1        0.0379
     12 C         142.8829  139.1779  167.5932 C.ar    1  UNL1        0.1364
     13 O         142.8724  138.8940  169.0661 O.3     1  UNL1       -0.4756
     14 C         142.1342  139.8062  170.0005 C.3     1  UNL1        0.2074
     15 C         141.4065  141.0022  169.4620 C.3     1  UNL1        0.0666
     16 C         140.5601  142.2193  169.6906 C.3     1  UNL1        0.0061
     17 C         140.9742  141.3649  170.8518 C.3     1  UNL1        0.0061
     18 H         140.5106  143.3808  164.3428 H       1  UNL1        0.1466
     19 H         139.6268  144.5136  165.2613 H       1  UNL1        0.1466
     20 N         142.9143  140.0296  163.1747 N.am    1  UNL1       -0.2791
     21 C         144.1279  140.6381  162.5368 C.2     1  UNL1        0.2672
     22 O         145.3310  140.9628  163.3717 O.2     1  UNL1       -0.2682
     23 H         142.1247  139.8165  162.6267 H       1  UNL1        0.1552
     24 C         144.1383  140.9220  161.0639 C.ar    1  UNL1        0.1349
     25 C         143.7079  139.8629  160.0929 C.ar    1  UNL1        0.0261
     26 C         143.7184  140.1468  158.6200 C.ar    1  UNL1        0.0329
     27 C         144.1593  141.4899  158.1182 C.ar    1  UNL1        0.1592
     28 F         144.1698  141.7738  156.6454 F       1  UNL1       -0.2025
     29 C         144.5897  142.5490  159.0893 C.ar    1  UNL1        0.1285
     30 N         144.5792  142.2651  160.5621 N.ar    1  UNL1       -0.2369
@<TRIPOS>BOND
     1     1     2    1
     2     2     3    2
     3     3     4    1
     4     4     5    1
     5     5     6    1
     6     4     7    1
     7     7     8   ar
     8     8     9   ar
     9     9    20    1
    10    20    21   am
    11    21    22    2
    12    21    24    1
    13    24    25   ar
    14    25    26   ar
    15    26    27   ar
    16    27    28    1
    17    27    29   ar
    18    29    30   ar
    19     9    10   ar
    20    10    11   ar
    21    11    12   ar
    22    12    13    1
    23    13    14    1
    24    14    15    1
    25    15    16    1
    26    16    17    1
    27     6     2    1
    28    12     7   ar
    29    17    15    1
    30    15     4    1
    31    30    24   ar
    32     1    18    1
    33     1    19    1
    34    20    23    1
