@<TRIPOS>MOLECULE
*****
 38 41 0 0 0
SMALL
GASTEIGER

@<TRIPOS>ATOM
      1 O         141.5475  140.0053  158.9197 O.2     1  UNL1       -0.2733
      2 C         142.7646  139.2118  158.5471 C.2     1  UNL1        0.2425
      3 N         143.9263  139.1320  159.4926 N.am    1  UNL1       -0.3032
      4 H         144.7252  138.6112  159.2480 H       1  UNL1        0.1495
      5 C         143.8709  139.8457  160.8108 C.3     1  UNL1        0.0889
      6 C         144.1021  141.3114  161.0302 C.3     1  UNL1        0.0383
      7 C         143.9486  141.5905  162.4960 C.3     1  UNL1        0.0738
      8 N         143.6226  140.2973  163.1825 N.3     1  UNL1       -0.2725
      9 C         143.5746  139.2189  162.1410 C.3     1  UNL1        0.0919
     10 C         143.3861  140.1145  164.6524 C.3     1  UNL1        0.0577
     11 C         143.6456  138.7837  165.2940 C.3     1  UNL1        0.0188
     12 C         143.4091  138.6009  166.7639 C.3     1  UNL1        0.0340
     13 C         142.9131  139.7489  167.5922 C.3     1  UNL1        0.1231
     14 O         143.0124  138.6889  168.6489 O.3     1  UNL1       -0.3812
     15 C         142.6536  141.0797  166.9506 C.3     1  UNL1        0.0340
     16 C         142.8901  141.2625  165.4807 C.3     1  UNL1        0.0188
     17 H         143.3301  137.8637  168.2503 H       1  UNL1        0.2107
     18 C         142.4516  140.5288  168.7876 C.ar    1  UNL1        0.0830
     19 C         143.0669  141.8613  169.0969 C.ar    1  UNL1        0.0171
     20 C         142.6054  142.6411  170.2923 C.ar    1  UNL1        0.0029
     21 C         141.5285  142.0884  171.1783 C.ar    1  UNL1        0.0207
     22 C         140.9132  140.7558  170.8688 C.ar    1  UNL1        0.0985
     23 N         141.3748  139.9760  169.6735 N.ar    1  UNL1       -0.2459
     24 C         142.8201  138.4981  157.2289 C.3     1  UNL1        0.1759
     25 N         142.5237  137.0294  157.1582 N.am    1  UNL1       -0.2931
     26 C         143.4333  136.1168  156.3901 C.2     1  UNL1        0.2462
     27 O         144.6393  136.6730  155.6928 O.2     1  UNL1       -0.2701
     28 H         141.7322  136.6643  157.6159 H       1  UNL1        0.1502
     29 C         143.1369  134.6481  156.3194 C.ar    1  UNL1        0.0533
     30 C         141.9838  134.1544  155.4969 C.ar    1  UNL1        0.0045
     31 C         141.6874  132.6857  155.4262 C.ar    1  UNL1        0.0001
     32 C         142.5443  131.7106  156.1780 C.ar    1  UNL1        0.0039
     33 C         143.6974  132.2043  157.0005 C.ar    1  UNL1        0.0716
     34 C         143.9937  133.6730  157.0712 C.ar    1  UNL1        0.0084
     35 C         144.5542  131.2293  157.7523 C.3     1  UNL1        0.4186
     36 F         145.4110  130.2542  158.5041 F       1  UNL1       -0.1659
     37 F         145.7317  132.1458  157.5991 F       1  UNL1       -0.1659
     38 F         143.3767  130.3127  157.9055 F       1  UNL1       -0.1659
@<TRIPOS>BOND
     1     1     2    2
     2     2    24    1
     3    24    25    1
     4    25    26   am
     5    26    27    2
     6    26    29    1
     7    29    30   ar
     8    30    31   ar
     9    31    32   ar
    10    32    33   ar
    11    33    35    1
    12    35    36    1
    13    35    37    1
    14    35    38    1
    15    33    34   ar
    16     2     3   am
    17     5     3    1
    18     5     6    1
    19     6     7    1
    20     7     8    1
    21    10     8    1
    22    10    11    1
    23    11    12    1
    24    12    13    1
    25    13    14    1
    26    13    18    1
    27    18    19   ar
    28    19    20   ar
    29    20    21   ar
    30    21    22   ar
    31    22    23   ar
    32    13    15    1
    33    15    16    1
    34     8     9    1
    35    34    29   ar
    36     9     5    1
    37    16    10    1
    38    23    18   ar
    39    25    28    1
    40     3     4    1
    41    14    17    1
@<TRIPOS>MOLECULE
*****
 38 41 0 0 0
SMALL
GASTEIGER

@<TRIPOS>ATOM
      1 O         140.2941  140.2574  159.0263 O.2     1  UNL1       -0.2733
      2 C         141.2853  139.1330  158.9682 C.2     1  UNL1        0.2425
      3 N         141.3713  138.1499  160.0978 N.am    1  UNL1       -0.3032
      4 H         142.0219  137.4120  160.0597 H       1  UNL1        0.1495
      5 C         140.4661  138.2911  161.2856 C.3     1  UNL1        0.0889
      6 C         138.9972  137.9892  161.3155 C.3     1  UNL1        0.0383
      7 C         138.4942  138.2705  162.7004 C.3     1  UNL1        0.0738
      8 N         139.6524  138.7464  163.5264 N.3     1  UNL1       -0.2725
      9 C         140.8711  138.7592  162.6520 C.3     1  UNL1        0.0919
     10 C         139.6009  139.1404  164.9728 C.3     1  UNL1        0.0577
     11 C         138.4370  138.7240  165.8225 C.3     1  UNL1        0.0188
     12 C         138.3855  139.1180  167.2689 C.3     1  UNL1        0.0340
     13 C         139.4978  139.9283  167.8656 C.3     1  UNL1        0.1231
     14 O         138.6136  139.7748  169.0676 O.3     1  UNL1       -0.3812
     15 C         140.6617  140.3447  167.0160 C.3     1  UNL1        0.0340
     16 C         140.7132  139.9507  165.5695 C.3     1  UNL1        0.0188
     17 H         137.8294  139.2566  168.8280 H       1  UNL1        0.2107
     18 C         140.3031  140.6853  168.8798 C.ar    1  UNL1        0.0830
     19 C         140.4516  142.1732  168.7606 C.ar    1  UNL1        0.0171
     20 C         141.2568  142.9302  169.7748 C.ar    1  UNL1        0.0029
     21 C         141.9136  142.1993  170.9082 C.ar    1  UNL1        0.0207
     22 C         141.7651  140.7114  171.0273 C.ar    1  UNL1        0.0985
     23 N         140.9598  139.9545  170.0131 N.ar    1  UNL1       -0.2459
     24 C         142.1905  138.9918  157.7805 C.3     1  UNL1        0.1759
     25 N         142.7070  137.6393  157.3878 N.am    1  UNL1       -0.2931
     26 C         141.8169  136.6806  156.6540 C.2     1  UNL1        0.2462
     27 O         140.4103  137.0743  156.3128 O.2     1  UNL1       -0.2701
     28 H         143.6302  137.3810  157.6117 H       1  UNL1        0.1502
     29 C         142.3335  135.3282  156.2612 C.ar    1  UNL1        0.0533
     30 C         141.7925  134.6440  155.0409 C.ar    1  UNL1        0.0045
     31 C         142.3090  133.2917  154.6483 C.ar    1  UNL1        0.0001
     32 C         143.3666  132.6235  155.4759 C.ar    1  UNL1        0.0039
     33 C         143.9076  133.3076  156.6962 C.ar    1  UNL1        0.0716
     34 C         143.3911  134.6600  157.0889 C.ar    1  UNL1        0.0084
     35 C         144.9652  132.6394  157.5239 C.3     1  UNL1        0.4186
     36 F         146.0228  131.9711  158.3515 F       1  UNL1       -0.1659
     37 F         144.6179  133.5256  158.6832 F       1  UNL1       -0.1659
     38 F         145.3125  131.7531  156.3646 F       1  UNL1       -0.1659
@<TRIPOS>BOND
     1     1     2    2
     2     2    24    1
     3    24    25    1
     4    25    26   am
     5    26    27    2
     6    26    29    1
     7    29    30   ar
     8    30    31   ar
     9    31    32   ar
    10    32    33   ar
    11    33    35    1
    12    35    36    1
    13    35    37    1
    14    35    38    1
    15    33    34   ar
    16     2     3   am
    17     5     3    1
    18     5     6    1
    19     6     7    1
    20     7     8    1
    21    10     8    1
    22    10    11    1
    23    11    12    1
    24    12    13    1
    25    13    14    1
    26    13    18    1
    27    18    19   ar
    28    19    20   ar
    29    20    21   ar
    30    21    22   ar
    31    22    23   ar
    32    13    15    1
    33    15    16    1
    34     8     9    1
    35    34    29   ar
    36     9     5    1
    37    16    10    1
    38    23    18   ar
    39    25    28    1
    40     3     4    1
    41    14    17    1
@<TRIPOS>MOLECULE
*****
 38 41 0 0 0
SMALL
GASTEIGER

@<TRIPOS>ATOM
      1 O         139.9504  140.1984  158.8144 O.2     1  UNL1       -0.2733
      2 C         138.4560  140.1785  158.6867 C.2     1  UNL1        0.2425
      3 N         137.6119  139.6977  159.8296 N.am    1  UNL1       -0.3032
      4 H         136.6310  139.6846  159.7457 H       1  UNL1        0.1495
      5 C         138.2622  139.2367  161.1003 C.3     1  UNL1        0.0889
      6 C         139.1715  138.0528  161.2463 C.3     1  UNL1        0.0383
      7 C         139.5886  137.9631  162.6843 C.3     1  UNL1        0.0738
      8 N         138.9371  139.0918  163.4272 N.3     1  UNL1       -0.2725
      9 C         138.1173  139.8789  162.4482 C.3     1  UNL1        0.0919
     10 C         139.0802  139.3823  164.8918 C.3     1  UNL1        0.0577
     11 C         138.0636  138.8594  165.8629 C.3     1  UNL1        0.0188
     12 C         138.2067  139.1499  167.3275 C.3     1  UNL1        0.0340
     13 C         139.3665  139.9632  167.8210 C.3     1  UNL1        0.1231
     14 O         138.6684  139.6899  169.1202 O.3     1  UNL1       -0.3812
     15 C         140.3831  140.4861  166.8499 C.3     1  UNL1        0.0340
     16 C         140.2400  140.1956  165.3853 C.3     1  UNL1        0.0188
     17 H         137.8750  139.1568  168.9551 H       1  UNL1        0.2107
     18 C         140.2838  140.6816  168.7657 C.ar    1  UNL1        0.0830
     19 C         140.3910  142.1769  168.7155 C.ar    1  UNL1        0.0171
     20 C         141.3083  142.8953  169.6602 C.ar    1  UNL1        0.0029
     21 C         142.1184  142.1183  170.6552 C.ar    1  UNL1        0.0207
     22 C         142.0112  140.6229  170.7054 C.ar    1  UNL1        0.0985
     23 N         141.0939  139.9046  169.7607 N.ar    1  UNL1       -0.2459
     24 C         137.8056  140.6394  157.4161 C.3     1  UNL1        0.1759
     25 N         136.3157  140.8012  157.3519 N.am    1  UNL1       -0.2931
     26 C         135.5442  140.1991  156.2151 C.2     1  UNL1        0.2462
     27 O         136.2625  139.4353  155.1425 O.2     1  UNL1       -0.2701
     28 H         135.8442  141.3025  158.0559 H       1  UNL1        0.1502
     29 C         134.0543  140.3609  156.1510 C.ar    1  UNL1        0.0533
     30 C         133.4433  141.2889  155.1432 C.ar    1  UNL1        0.0045
     31 C         131.9535  141.4506  155.0791 C.ar    1  UNL1        0.0001
     32 C         131.0746  140.6843  156.0227 C.ar    1  UNL1        0.0039
     33 C         131.6855  139.7564  157.0305 C.ar    1  UNL1        0.0716
     34 C         133.1754  139.5947  157.0946 C.ar    1  UNL1        0.0084
     35 C         130.8066  138.9901  157.9741 C.3     1  UNL1        0.4186
     36 F         129.9277  138.2239  158.9177 F       1  UNL1       -0.1659
     37 F         129.5920  139.5892  157.3293 F       1  UNL1       -0.1659
     38 F         132.0212  138.3910  158.6189 F       1  UNL1       -0.1659
@<TRIPOS>BOND
     1     1     2    2
     2     2    24    1
     3    24    25    1
     4    25    26   am
     5    26    27    2
     6    26    29    1
     7    29    30   ar
     8    30    31   ar
     9    31    32   ar
    10    32    33   ar
    11    33    35    1
    12    35    36    1
    13    35    37    1
    14    35    38    1
    15    33    34   ar
    16     2     3   am
    17     5     3    1
    18     5     6    1
    19     6     7    1
    20     7     8    1
    21    10     8    1
    22    10    11    1
    23    11    12    1
    24    12    13    1
    25    13    14    1
    26    13    18    1
    27    18    19   ar
    28    19    20   ar
    29    20    21   ar
    30    21    22   ar
    31    22    23   ar
    32    13    15    1
    33    15    16    1
    34     8     9    1
    35    34    29   ar
    36     9     5    1
    37    16    10    1
    38    23    18   ar
    39    25    28    1
    40     3     4    1
    41    14    17    1
@<TRIPOS>MOLECULE
*****
 38 41 0 0 0
SMALL
GASTEIGER

@<TRIPOS>ATOM
      1 O         138.4682  136.9882  155.7969 O.2     1  UNL1       -0.2733
      2 C         138.9737  137.6554  154.5522 C.2     1  UNL1        0.2425
      3 N         138.3416  138.9290  154.0744 N.am    1  UNL1       -0.3032
      4 H         138.6734  139.3669  153.2574 H       1  UNL1        0.1495
      5 C         137.2040  139.5355  154.8413 C.3     1  UNL1        0.0889
      6 C         137.2932  140.7119  155.7677 C.3     1  UNL1        0.0383
      7 C         135.9218  140.9755  156.3154 C.3     1  UNL1        0.0738
      8 N         134.9851  139.9621  155.7274 N.3     1  UNL1       -0.2725
      9 C         135.7776  139.0721  154.8164 C.3     1  UNL1        0.0919
     10 C         133.5143  139.8571  156.0022 C.3     1  UNL1        0.0577
     11 C         132.6082  141.0100  155.6866 C.3     1  UNL1        0.0188
     12 C         131.1373  140.9050  155.9614 C.3     1  UNL1        0.0340
     13 C         130.5726  139.6471  156.5519 C.3     1  UNL1        0.1231
     14 O         129.3191  140.4614  156.4261 O.3     1  UNL1       -0.3812
     15 C         131.4787  138.4941  156.8676 C.3     1  UNL1        0.0340
     16 C         132.9496  138.5991  156.5927 C.3     1  UNL1        0.0188
     17 H         129.5334  141.3282  156.0470 H       1  UNL1        0.2107
     18 C         129.5725  138.6719  157.0987 C.ar    1  UNL1        0.0830
     19 C         129.6212  138.2797  158.5456 C.ar    1  UNL1        0.0171
     20 C         128.6211  137.3046  159.0925 C.ar    1  UNL1        0.0029
     21 C         127.5723  136.7217  158.1923 C.ar    1  UNL1        0.0207
     22 C         127.5237  137.1140  156.7452 C.ar    1  UNL1        0.0985
     23 N         128.5238  138.0891  156.1985 N.ar    1  UNL1       -0.2459
     24 C         140.1112  137.0489  153.7853 C.3     1  UNL1        0.1759
     25 N         140.6203  135.6862  154.1511 N.am    1  UNL1       -0.2931
     26 C         141.5398  135.5191  155.3244 C.2     1  UNL1        0.2462
     27 O         141.9502  136.7147  156.1319 O.2     1  UNL1       -0.2701
     28 H         140.3510  134.9014  153.6212 H       1  UNL1        0.1502
     29 C         142.0489  134.1564  155.6903 C.ar    1  UNL1        0.0533
     30 C         141.3169  132.9325  155.2253 C.ar    1  UNL1        0.0045
     31 C         141.8261  131.5698  155.5911 C.ar    1  UNL1        0.0001
     32 C         143.0672  131.4310  156.4220 C.ar    1  UNL1        0.0039
     33 C         143.7992  132.6549  156.8870 C.ar    1  UNL1        0.0716
     34 C         143.2901  134.0176  156.5211 C.ar    1  UNL1        0.0084
     35 C         145.0403  132.5161  157.7179 C.3     1  UNL1        0.4186
     36 F         146.2815  132.3773  158.5487 F       1  UNL1       -0.1659
     37 F         145.5401  131.4465  156.7926 F       1  UNL1       -0.1659
     38 F         144.5405  133.5858  158.6431 F       1  UNL1       -0.1659
@<TRIPOS>BOND
     1     1     2    2
     2     2    24    1
     3    24    25    1
     4    25    26   am
     5    26    27    2
     6    26    29    1
     7    29    30   ar
     8    30    31   ar
     9    31    32   ar
    10    32    33   ar
    11    33    35    1
    12    35    36    1
    13    35    37    1
    14    35    38    1
    15    33    34   ar
    16     2     3   am
    17     5     3    1
    18     5     6    1
    19     6     7    1
    20     7     8    1
    21    10     8    1
    22    10    11    1
    23    11    12    1
    24    12    13    1
    25    13    14    1
    26    13    18    1
    27    18    19   ar
    28    19    20   ar
    29    20    21   ar
    30    21    22   ar
    31    22    23   ar
    32    13    15    1
    33    15    16    1
    34     8     9    1
    35    34    29   ar
    36     9     5    1
    37    16    10    1
    38    23    18   ar
    39    25    28    1
    40     3     4    1
    41    14    17    1
@<TRIPOS>MOLECULE
*****
 38 41 0 0 0
SMALL
GASTEIGER

@<TRIPOS>ATOM
      1 O         141.3210  138.9869  159.1101 O.2     1  UNL1       -0.2733
      2 C         142.6776  138.7217  158.5277 C.2     1  UNL1        0.2425
      3 N         143.9079  139.1792  159.2537 N.am    1  UNL1       -0.3032
      4 H         144.7983  139.0051  158.8714 H       1  UNL1        0.1495
      5 C         143.7816  139.9019  160.5621 C.3     1  UNL1        0.0889
      6 C         143.8338  141.3882  160.7570 C.3     1  UNL1        0.0383
      7 C         143.6654  141.6700  162.2206 C.3     1  UNL1        0.0738
      8 N         143.5092  140.3578  162.9303 N.3     1  UNL1       -0.2725
      9 C         143.5810  139.2650  161.9053 C.3     1  UNL1        0.0919
     10 C         143.3152  140.1711  164.4060 C.3     1  UNL1        0.0577
     11 C         143.5840  138.8360  165.0347 C.3     1  UNL1        0.0188
     12 C         143.3901  138.6494  166.5104 C.3     1  UNL1        0.0340
     13 C         142.9273  139.7977  167.3572 C.3     1  UNL1        0.1231
     14 O         143.0502  138.7331  168.4067 O.3     1  UNL1       -0.3812
     15 C         142.6584  141.1328  166.7284 C.3     1  UNL1        0.0340
     16 C         142.8524  141.3195  165.2528 C.3     1  UNL1        0.0188
     17 H         143.3500  137.9071  167.9958 H       1  UNL1        0.2107
     18 C         142.5071  140.5763  168.5686 C.ar    1  UNL1        0.0830
     19 C         143.1019  141.9273  168.8352 C.ar    1  UNL1        0.0171
     20 C         142.6818  142.7059  170.0466 C.ar    1  UNL1        0.0029
     21 C         141.6669  142.1335  170.9912 C.ar    1  UNL1        0.0207
     22 C         141.0721  140.7824  170.7245 C.ar    1  UNL1        0.0985
     23 N         141.4923  140.0039  169.5131 N.ar    1  UNL1       -0.2459
     24 C         142.8040  137.9991  157.2194 C.3     1  UNL1        0.1759
     25 N         143.4596  136.6509  157.1675 N.am    1  UNL1       -0.2931
     26 C         142.7257  135.4821  156.5801 C.2     1  UNL1        0.2462
     27 O         141.3360  135.6613  156.0446 O.2     1  UNL1       -0.2701
     28 H         144.3717  136.5332  157.5189 H       1  UNL1        0.1502
     29 C         143.3814  134.1339  156.5282 C.ar    1  UNL1        0.0533
     30 C         144.1739  133.6397  157.7018 C.ar    1  UNL1        0.0045
     31 C         144.8295  132.2916  157.6499 C.ar    1  UNL1        0.0001
     32 C         144.6926  131.4377  156.4242 C.ar    1  UNL1        0.0039
     33 C         143.9000  131.9319  155.2506 C.ar    1  UNL1        0.0716
     34 C         143.2444  133.2800  155.3025 C.ar    1  UNL1        0.0084
     35 C         143.7631  131.0781  154.0249 C.3     1  UNL1        0.4186
     36 F         143.6261  130.2242  152.7993 F       1  UNL1       -0.1659
     37 F         144.4491  129.9489  154.7350 F       1  UNL1       -0.1659
     38 F         143.0770  132.2073  153.3149 F       1  UNL1       -0.1659
@<TRIPOS>BOND
     1     1     2    2
     2     2    24    1
     3    24    25    1
     4    25    26   am
     5    26    27    2
     6    26    29    1
     7    29    30   ar
     8    30    31   ar
     9    31    32   ar
    10    32    33   ar
    11    33    35    1
    12    35    36    1
    13    35    37    1
    14    35    38    1
    15    33    34   ar
    16     2     3   am
    17     5     3    1
    18     5     6    1
    19     6     7    1
    20     7     8    1
    21    10     8    1
    22    10    11    1
    23    11    12    1
    24    12    13    1
    25    13    14    1
    26    13    18    1
    27    18    19   ar
    28    19    20   ar
    29    20    21   ar
    30    21    22   ar
    31    22    23   ar
    32    13    15    1
    33    15    16    1
    34     8     9    1
    35    34    29   ar
    36     9     5    1
    37    16    10    1
    38    23    18   ar
    39    25    28    1
    40     3     4    1
    41    14    17    1
@<TRIPOS>MOLECULE
*****
 38 41 0 0 0
SMALL
GASTEIGER

@<TRIPOS>ATOM
      1 O         142.8571  144.2178  160.9369 O.2     1  UNL1       -0.2733
      2 C         141.4037  143.9585  161.2021 C.2     1  UNL1        0.2425
      3 N         140.6192  143.0737  160.2793 N.am    1  UNL1       -0.3032
      4 H         139.6652  142.9035  160.4534 H       1  UNL1        0.1495
      5 C         141.2880  142.4482  159.0913 C.3     1  UNL1        0.0889
      6 C         141.7489  143.1679  157.8586 C.3     1  UNL1        0.0383
      7 C         142.3591  142.1576  156.9328 C.3     1  UNL1        0.0738
      8 N         142.2754  140.8135  157.5934 N.3     1  UNL1       -0.2725
      9 C         141.6134  140.9930  158.9274 C.3     1  UNL1        0.0919
     10 C         142.7672  139.5174  157.0205 C.3     1  UNL1        0.0577
     11 C         143.9802  139.4997  156.1383 C.3     1  UNL1        0.0188
     12 C         144.4720  138.2036  155.5654 C.3     1  UNL1        0.0340
     13 C         143.7509  136.9252  155.8748 C.3     1  UNL1        0.1231
     14 O         144.8455  136.4002  154.9937 O.3     1  UNL1       -0.3812
     15 C         142.5380  136.9429  156.7571 C.3     1  UNL1        0.0340
     16 C         142.0461  138.2390  157.3300 C.3     1  UNL1        0.0188
     17 H         145.4102  137.1349  154.7070 H       1  UNL1        0.2107
     18 C         143.4100  135.4644  155.8782 C.ar    1  UNL1        0.0830
     19 C         142.8729  134.8167  154.6365 C.ar    1  UNL1        0.0171
     20 C         142.5320  133.3560  154.6399 C.ar    1  UNL1        0.0029
     21 C         142.7281  132.5429  155.8851 C.ar    1  UNL1        0.0207
     22 C         143.2652  133.1907  157.1269 C.ar    1  UNL1        0.0985
     23 N         143.6061  134.6514  157.1234 N.ar    1  UNL1       -0.2459
     24 C         140.7349  144.5839  162.3901 C.3     1  UNL1        0.1759
     25 N         140.7042  143.8576  163.7022 N.am    1  UNL1       -0.2931
     26 C         139.8521  142.6336  163.8621 C.2     1  UNL1        0.2462
     27 O         139.0307  142.1357  162.7100 O.2     1  UNL1       -0.2701
     28 H         141.2433  144.1844  164.4584 H       1  UNL1        0.1502
     29 C         139.8215  141.9073  165.1743 C.ar    1  UNL1        0.0533
     30 C         140.6856  142.3717  166.3090 C.ar    1  UNL1        0.0045
     31 C         140.6549  141.6454  167.6210 C.ar    1  UNL1        0.0001
     32 C         139.7601  140.4546  167.7984 C.ar    1  UNL1        0.0039
     33 C         138.8960  139.9902  166.6637 C.ar    1  UNL1        0.0716
     34 C         138.9267  140.7165  165.3516 C.ar    1  UNL1        0.0084
     35 C         138.0012  138.7994  166.8410 C.3     1  UNL1        0.4186
     36 F         137.1064  137.6087  167.0183 F       1  UNL1       -0.1659
     37 F         137.8543  139.1267  168.2975 F       1  UNL1       -0.1659
     38 F         138.1480  138.4722  165.3845 F       1  UNL1       -0.1659
@<TRIPOS>BOND
     1     1     2    2
     2     2    24    1
     3    24    25    1
     4    25    26   am
     5    26    27    2
     6    26    29    1
     7    29    30   ar
     8    30    31   ar
     9    31    32   ar
    10    32    33   ar
    11    33    35    1
    12    35    36    1
    13    35    37    1
    14    35    38    1
    15    33    34   ar
    16     2     3   am
    17     5     3    1
    18     5     6    1
    19     6     7    1
    20     7     8    1
    21    10     8    1
    22    10    11    1
    23    11    12    1
    24    12    13    1
    25    13    14    1
    26    13    18    1
    27    18    19   ar
    28    19    20   ar
    29    20    21   ar
    30    21    22   ar
    31    22    23   ar
    32    13    15    1
    33    15    16    1
    34     8     9    1
    35    34    29   ar
    36     9     5    1
    37    16    10    1
    38    23    18   ar
    39    25    28    1
    40     3     4    1
    41    14    17    1
@<TRIPOS>MOLECULE
*****
 38 41 0 0 0
SMALL
GASTEIGER

@<TRIPOS>ATOM
      1 O         143.9068  138.7897  159.6595 O.2     1  UNL1       -0.2733
      2 C         143.2858  139.5851  158.5496 C.2     1  UNL1        0.2425
      3 N         142.8871  141.0123  158.7819 N.am    1  UNL1       -0.3032
      4 H         142.4795  141.5344  158.0535 H       1  UNL1        0.1495
      5 C         143.1095  141.6443  160.1240 C.3     1  UNL1        0.0889
      6 C         144.1556  142.6672  160.4545 C.3     1  UNL1        0.0383
      7 C         144.0174  143.0194  161.9060 C.3     1  UNL1        0.0738
      8 N         142.8858  142.2140  162.4727 N.3     1  UNL1       -0.2725
      9 C         142.3247  141.3642  161.3713 C.3     1  UNL1        0.0919
     10 C         142.4005  142.2519  163.8915 C.3     1  UNL1        0.0577
     11 C         141.2406  143.1268  164.2643 C.3     1  UNL1        0.0188
     12 C         140.7553  143.1647  165.6831 C.3     1  UNL1        0.0340
     13 C         141.4301  142.3277  166.7291 C.3     1  UNL1        0.1231
     14 O         140.3774  142.9920  167.5662 O.3     1  UNL1       -0.3812
     15 C         142.5901  141.4528  166.3563 C.3     1  UNL1        0.0340
     16 C         143.0753  141.4149  164.9375 C.3     1  UNL1        0.0188
     17 H         139.8460  143.5820  167.0090 H       1  UNL1        0.2107
     18 C         141.7392  141.7214  168.0659 C.ar    1  UNL1        0.0830
     19 C         142.1146  142.6025  169.2203 C.ar    1  UNL1        0.0171
     20 C         142.4237  141.9962  170.5570 C.ar    1  UNL1        0.0029
     21 C         142.3575  140.5088  170.7393 C.ar    1  UNL1        0.0207
     22 C         141.9822  139.6277  169.5848 C.ar    1  UNL1        0.0985
     23 N         141.6730  140.2340  168.2481 N.ar    1  UNL1       -0.2459
     24 C         143.0634  138.9532  157.2076 C.3     1  UNL1        0.1759
     25 N         143.2439  137.4740  157.0358 N.am    1  UNL1       -0.2931
     26 C         142.1291  136.6427  156.4737 C.2     1  UNL1        0.2462
     27 O         140.8338  137.2905  156.0832 O.2     1  UNL1       -0.2701
     28 H         144.0941  137.0488  157.2921 H       1  UNL1        0.1502
     29 C         142.3096  135.1635  156.3019 C.ar    1  UNL1        0.0533
     30 C         141.3971  134.3973  155.3908 C.ar    1  UNL1        0.0045
     31 C         141.5776  132.9182  155.2191 C.ar    1  UNL1        0.0001
     32 C         142.6707  132.2052  155.9586 C.ar    1  UNL1        0.0039
     33 C         143.5832  132.9713  156.8697 C.ar    1  UNL1        0.0716
     34 C         143.4027  134.4504  157.0414 C.ar    1  UNL1        0.0084
     35 C         144.6763  132.2583  157.6092 C.3     1  UNL1        0.4186
     36 F         145.7693  131.5453  158.3487 F       1  UNL1       -0.1659
     37 F         144.5493  131.0930  156.6733 F       1  UNL1       -0.1659
     38 F         144.8032  133.4236  158.5451 F       1  UNL1       -0.1659
@<TRIPOS>BOND
     1     1     2    2
     2     2    24    1
     3    24    25    1
     4    25    26   am
     5    26    27    2
     6    26    29    1
     7    29    30   ar
     8    30    31   ar
     9    31    32   ar
    10    32    33   ar
    11    33    35    1
    12    35    36    1
    13    35    37    1
    14    35    38    1
    15    33    34   ar
    16     2     3   am
    17     5     3    1
    18     5     6    1
    19     6     7    1
    20     7     8    1
    21    10     8    1
    22    10    11    1
    23    11    12    1
    24    12    13    1
    25    13    14    1
    26    13    18    1
    27    18    19   ar
    28    19    20   ar
    29    20    21   ar
    30    21    22   ar
    31    22    23   ar
    32    13    15    1
    33    15    16    1
    34     8     9    1
    35    34    29   ar
    36     9     5    1
    37    16    10    1
    38    23    18   ar
    39    25    28    1
    40     3     4    1
    41    14    17    1
@<TRIPOS>MOLECULE
*****
 38 41 0 0 0
SMALL
GASTEIGER

@<TRIPOS>ATOM
      1 O         143.1810  143.9497  162.6715 O.2     1  UNL1       -0.2733
      2 C         143.3140  142.4557  162.6674 C.2     1  UNL1        0.2425
      3 N         142.3769  141.6215  161.8454 N.am    1  UNL1       -0.3032
      4 H         142.4642  140.6408  161.8427 H       1  UNL1        0.1495
      5 C         141.3066  142.2813  161.0273 C.3     1  UNL1        0.0889
      6 C         139.8398  142.2949  161.3406 C.3     1  UNL1        0.0383
      7 C         139.1420  143.0654  160.2592 C.3     1  UNL1        0.0738
      8 N         140.1776  143.5281  159.2776 N.3     1  UNL1       -0.2725
      9 C         141.5154  143.0435  159.7523 C.3     1  UNL1        0.0919
     10 C         139.9205  144.3338  158.0388 C.3     1  UNL1        0.0577
     11 C         139.4406  143.6562  156.7895 C.3     1  UNL1        0.0188
     12 C         139.1835  144.4619  155.5507 C.3     1  UNL1        0.0340
     13 C         139.4062  145.9453  155.5612 C.3     1  UNL1        0.1231
     14 O         138.9485  145.7605  154.1447 O.3     1  UNL1       -0.3812
     15 C         139.8861  146.6229  156.8104 C.3     1  UNL1        0.0340
     16 C         140.1432  145.8172  158.0492 C.3     1  UNL1        0.0188
     17 H         138.7612  144.8223  153.9852 H       1  UNL1        0.2107
     18 C         139.4700  147.3645  155.0796 C.ar    1  UNL1        0.0830
     19 C         138.7618  148.4467  155.8392 C.ar    1  UNL1        0.0171
     20 C         138.8255  149.8659  155.3577 C.ar    1  UNL1        0.0029
     21 C         139.5975  150.2028  154.1165 C.ar    1  UNL1        0.0207
     22 C         140.3058  149.1204  153.3569 C.ar    1  UNL1        0.0985
     23 N         140.2420  147.7013  153.8385 N.ar    1  UNL1       -0.2459
     24 C         144.3842  141.7958  163.4854 C.3     1  UNL1        0.1759
     25 N         144.2254  141.6764  164.9723 N.am    1  UNL1       -0.2931
     26 C         143.1398  140.8133  165.5436 C.2     1  UNL1        0.2462
     27 O         142.2130  140.0696  164.6283 O.2     1  UNL1       -0.2701
     28 H         144.8336  142.1645  165.5731 H       1  UNL1        0.1502
     29 C         142.9809  140.6939  167.0305 C.ar    1  UNL1        0.0533
     30 C         142.5748  139.3843  167.6386 C.ar    1  UNL1        0.0045
     31 C         142.4160  139.2649  169.1253 C.ar    1  UNL1        0.0001
     32 C         142.6632  140.4552  170.0040 C.ar    1  UNL1        0.0039
     33 C         143.0694  141.7649  169.3959 C.ar    1  UNL1        0.0716
     34 C         143.2282  141.8842  167.9091 C.ar    1  UNL1        0.0084
     35 C         143.3166  142.9552  170.2745 C.3     1  UNL1        0.4186
     36 F         143.5639  144.1455  171.1532 F       1  UNL1       -0.1659
     37 F         141.8379  143.1833  170.3817 F       1  UNL1       -0.1659
     38 F         144.7953  142.7271  170.1673 F       1  UNL1       -0.1659
@<TRIPOS>BOND
     1     1     2    2
     2     2    24    1
     3    24    25    1
     4    25    26   am
     5    26    27    2
     6    26    29    1
     7    29    30   ar
     8    30    31   ar
     9    31    32   ar
    10    32    33   ar
    11    33    35    1
    12    35    36    1
    13    35    37    1
    14    35    38    1
    15    33    34   ar
    16     2     3   am
    17     5     3    1
    18     5     6    1
    19     6     7    1
    20     7     8    1
    21    10     8    1
    22    10    11    1
    23    11    12    1
    24    12    13    1
    25    13    14    1
    26    13    18    1
    27    18    19   ar
    28    19    20   ar
    29    20    21   ar
    30    21    22   ar
    31    22    23   ar
    32    13    15    1
    33    15    16    1
    34     8     9    1
    35    34    29   ar
    36     9     5    1
    37    16    10    1
    38    23    18   ar
    39    25    28    1
    40     3     4    1
    41    14    17    1
@<TRIPOS>MOLECULE
*****
 38 41 0 0 0
SMALL
GASTEIGER

@<TRIPOS>ATOM
      1 O         142.8380  137.2441  159.5435 O.2     1  UNL1       -0.2733
      2 C         142.7351  138.4786  158.6976 C.2     1  UNL1        0.2425
      3 N         142.8132  139.8338  159.3359 N.am    1  UNL1       -0.3032
      4 H         142.7457  140.6440  158.7807 H       1  UNL1        0.1495
      5 C         142.9942  139.9545  160.8201 C.3     1  UNL1        0.0889
      6 C         144.3020  140.1019  161.5397 C.3     1  UNL1        0.0383
      7 C         144.0152  140.1875  163.0096 C.3     1  UNL1        0.0738
      8 N         142.5301  140.0930  163.1983 N.3     1  UNL1       -0.2725
      9 C         141.8991  139.9490  161.8452 C.3     1  UNL1        0.0919
     10 C         141.8036  140.1351  164.5100 C.3     1  UNL1        0.0577
     11 C         140.5553  139.3259  164.7022 C.3     1  UNL1        0.0188
     12 C         139.8288  139.3680  166.0138 C.3     1  UNL1        0.0340
     13 C         140.3506  140.2193  167.1332 C.3     1  UNL1        0.1231
     14 O         139.1371  139.6353  167.7939 O.3     1  UNL1       -0.3812
     15 C         141.5989  141.0285  166.9410 C.3     1  UNL1        0.0340
     16 C         142.3254  140.9863  165.6294 C.3     1  UNL1        0.0188
     17 H         138.6829  139.0452  167.1722 H       1  UNL1        0.2107
     18 C         140.4509  140.8677  168.4821 C.ar    1  UNL1        0.0830
     19 C         140.7608  140.0374  169.6922 C.ar    1  UNL1        0.0171
     20 C         140.8612  140.6859  171.0411 C.ar    1  UNL1        0.0029
     21 C         140.6516  142.1647  171.1798 C.ar    1  UNL1        0.0207
     22 C         140.3417  142.9950  169.9696 C.ar    1  UNL1        0.0985
     23 N         140.2413  142.3465  168.6208 N.ar    1  UNL1       -0.2459
     24 C         142.5542  138.3580  157.2135 C.3     1  UNL1        0.1759
     25 N         142.3223  137.0120  156.5932 N.am    1  UNL1       -0.2931
     26 C         143.4205  136.3427  155.8212 C.2     1  UNL1        0.2462
     27 O         144.7506  137.0193  155.6696 O.2     1  UNL1       -0.2701
     28 H         141.4493  136.5679  156.6927 H       1  UNL1        0.1502
     29 C         143.1886  134.9968  155.2009 C.ar    1  UNL1        0.0533
     30 C         142.3087  134.8693  153.9928 C.ar    1  UNL1        0.0045
     31 C         142.0768  133.5234  153.3725 C.ar    1  UNL1        0.0001
     32 C         142.7249  132.3050  153.9603 C.ar    1  UNL1        0.0039
     33 C         143.6048  132.4325  155.1684 C.ar    1  UNL1        0.0716
     34 C         143.8367  133.7784  155.7886 C.ar    1  UNL1        0.0084
     35 C         144.2529  131.2141  155.7561 C.3     1  UNL1        0.4186
     36 F         144.9010  129.9957  156.3439 F       1  UNL1       -0.1659
     37 F         143.1153  130.3705  155.2618 F       1  UNL1       -0.1659
     38 F         145.3905  132.0576  156.2505 F       1  UNL1       -0.1659
@<TRIPOS>BOND
     1     1     2    2
     2     2    24    1
     3    24    25    1
     4    25    26   am
     5    26    27    2
     6    26    29    1
     7    29    30   ar
     8    30    31   ar
     9    31    32   ar
    10    32    33   ar
    11    33    35    1
    12    35    36    1
    13    35    37    1
    14    35    38    1
    15    33    34   ar
    16     2     3   am
    17     5     3    1
    18     5     6    1
    19     6     7    1
    20     7     8    1
    21    10     8    1
    22    10    11    1
    23    11    12    1
    24    12    13    1
    25    13    14    1
    26    13    18    1
    27    18    19   ar
    28    19    20   ar
    29    20    21   ar
    30    21    22   ar
    31    22    23   ar
    32    13    15    1
    33    15    16    1
    34     8     9    1
    35    34    29   ar
    36     9     5    1
    37    16    10    1
    38    23    18   ar
    39    25    28    1
    40     3     4    1
    41    14    17    1
