@<TRIPOS>MOLECULE
*****
 29 32 0 0 0
SMALL
GASTEIGER

@<TRIPOS>ATOM
      1 C         139.3935  139.5888  167.4600 C.ar    1  UNL1        0.1488
      2 C         138.2253  138.8078  166.9353 C.ar    1  UNL1        0.0390
      3 C         138.1861  138.3944  165.4940 C.ar    1  UNL1        0.0417
      4 C         139.3150  138.7620  164.5773 C.ar    1  UNL1        0.1640
      5 N         139.5524  138.4954  163.1203 N.ar    1  UNL1       -0.2234
      6 C         140.8673  139.1116  162.7446 C.ar    1  UNL1        0.1197
      7 C         141.4426  139.7590  163.9693 C.ar    1  UNL1        0.1036
      8 N         140.4833  139.5429  165.1020 N.ar    1  UNL1       -0.2096
      9 N         140.5225  139.9563  166.5433 N.ar    1  UNL1       -0.1489
     10 C         142.7481  140.4936  164.0476 C.ar    1  UNL1        0.0192
     11 C         144.0405  139.7388  163.9486 C.ar    1  UNL1        0.0015
     12 C         145.3460  140.4733  164.0269 C.ar    1  UNL1       -0.0000
     13 C         145.3591  141.9627  164.2042 C.ar    1  UNL1        0.0039
     14 C         144.0666  142.7176  164.3032 C.ar    1  UNL1        0.0715
     15 C         142.7612  141.9830  164.2249 C.ar    1  UNL1        0.0054
     16 C         144.0797  144.2071  164.4805 C.3     1  UNL1        0.4186
     17 F         144.0927  145.6965  164.6578 F       1  UNL1       -0.1659
     18 F         144.8869  144.0506  165.7350 F       1  UNL1       -0.1659
     19 F         143.2725  144.3635  163.2259 F       1  UNL1       -0.1659
     20 N         139.4328  140.0023  168.9014 N.pl3   1  UNL1       -0.3184
     21 H         138.7482  139.6720  169.5271 H       1  UNL1        0.1482
     22 O         143.7621  143.6690  170.8537 O.3     1  UNL1       -0.3845
     23 C         142.6798  142.7523  170.3656 C.3     1  UNL1        0.1106
     24 C         141.3656  143.3171  169.9143 C.3     1  UNL1        0.0309
     25 C         140.2832  142.4005  169.4262 C.3     1  UNL1        0.0220
     26 C         140.5151  140.9189  169.3895 C.3     1  UNL1        0.0706
     27 C         141.8294  140.3541  169.8408 C.3     1  UNL1        0.0220
     28 C         142.9117  141.2708  170.3288 C.3     1  UNL1        0.0309
     29 H         143.4512  144.5869  170.8130 H       1  UNL1        0.2103
@<TRIPOS>BOND
     1    23    22    1
     2    23    24    1
     3    24    25    1
     4    25    26    1
     5    26    20    1
     6    20     1    1
     7     1     2   ar
     8     2     3   ar
     9     3     4   ar
    10     4     5   ar
    11     5     6   ar
    12     6     7   ar
    13     7    10    1
    14    10    11   ar
    15    11    12   ar
    16    12    13   ar
    17    13    14   ar
    18    14    16    1
    19    16    17    1
    20    16    18    1
    21    16    19    1
    22    14    15   ar
    23     7     8   ar
    24     8     9   ar
    25    26    27    1
    26    27    28    1
    27    28    23    1
    28     9     1   ar
    29     8     4   ar
    30    15    10   ar
    31    22    29    1
    32    20    21    1
@<TRIPOS>MOLECULE
*****
 29 32 0 0 0
SMALL
GASTEIGER

@<TRIPOS>ATOM
      1 C         142.5290  139.8231  165.2550 C.ar    1  UNL1        0.1488
      2 C         143.9369  139.3109  165.1829 C.ar    1  UNL1        0.0390
      3 C         144.9538  140.0279  164.3452 C.ar    1  UNL1        0.0417
      4 C         144.5628  141.2571  163.5796 C.ar    1  UNL1        0.1640
      5 N         145.3416  142.1674  162.6769 N.ar    1  UNL1       -0.2234
      6 C         144.4149  143.2423  162.1911 C.ar    1  UNL1        0.1197
      7 C         143.0634  142.9962  162.7936 C.ar    1  UNL1        0.1036
      8 N         143.1548  141.7693  163.6517 N.ar    1  UNL1       -0.2096
      9 N         142.1379  141.0523  164.4894 N.ar    1  UNL1       -0.1489
     10 C         141.8360  143.8306  162.5762 C.ar    1  UNL1        0.0192
     11 C         141.7167  144.6834  161.3480 C.ar    1  UNL1        0.0015
     12 C         140.4893  145.5178  161.1305 C.ar    1  UNL1       -0.0000
     13 C         139.3811  145.4993  162.1412 C.ar    1  UNL1        0.0039
     14 C         139.5004  144.6465  163.3694 C.ar    1  UNL1        0.0715
     15 C         140.7278  143.8121  163.5868 C.ar    1  UNL1        0.0054
     16 C         138.3922  144.6280  164.3802 C.3     1  UNL1        0.4186
     17 F         137.2840  144.6095  165.3909 F       1  UNL1       -0.1659
     18 F         137.3908  144.4435  163.2788 F       1  UNL1       -0.1659
     19 F         139.3936  144.8125  165.4816 F       1  UNL1       -0.1659
     20 N         141.5120  139.1062  166.0928 N.pl3   1  UNL1       -0.3184
     21 H         140.9769  138.3782  165.7016 H       1  UNL1        0.1482
     22 O         140.7052  140.6749  171.8276 O.3     1  UNL1       -0.3845
     23 C         140.9069  140.2827  170.3939 C.3     1  UNL1        0.1106
     24 C         139.7842  140.4320  169.4105 C.3     1  UNL1        0.0309
     25 C         139.9859  140.0398  167.9767 C.3     1  UNL1        0.0220
     26 C         141.3103  139.4983  167.5265 C.3     1  UNL1        0.0706
     27 C         142.4330  139.3491  168.5100 C.3     1  UNL1        0.0220
     28 C         142.2313  139.7413  169.9437 C.3     1  UNL1        0.0309
     29 H         139.8003  141.0026  171.9489 H       1  UNL1        0.2103
@<TRIPOS>BOND
     1    23    22    1
     2    23    24    1
     3    24    25    1
     4    25    26    1
     5    26    20    1
     6    20     1    1
     7     1     2   ar
     8     2     3   ar
     9     3     4   ar
    10     4     5   ar
    11     5     6   ar
    12     6     7   ar
    13     7    10    1
    14    10    11   ar
    15    11    12   ar
    16    12    13   ar
    17    13    14   ar
    18    14    16    1
    19    16    17    1
    20    16    18    1
    21    16    19    1
    22    14    15   ar
    23     7     8   ar
    24     8     9   ar
    25    26    27    1
    26    27    28    1
    27    28    23    1
    28     9     1   ar
    29     8     4   ar
    30    15    10   ar
    31    22    29    1
    32    20    21    1
@<TRIPOS>MOLECULE
*****
 29 32 0 0 0
SMALL
GASTEIGER

@<TRIPOS>ATOM
      1 C         143.4910  142.5591  166.3839 C.ar    1  UNL1        0.1488
      2 C         144.4220  143.4512  165.6175 C.ar    1  UNL1        0.0390
      3 C         144.4455  143.3998  164.1186 C.ar    1  UNL1        0.0417
      4 C         143.5381  142.4563  163.3861 C.ar    1  UNL1        0.1640
      5 N         143.3406  142.1857  161.9239 N.ar    1  UNL1       -0.2234
      6 C         142.2875  141.1264  161.7868 C.ar    1  UNL1        0.1197
      7 C         141.8342  140.7423  163.1641 C.ar    1  UNL1        0.1036
      8 N         142.6072  141.5642  164.1525 N.ar    1  UNL1       -0.2096
      9 N         142.5836  141.6157  165.6514 N.ar    1  UNL1       -0.1489
     10 C         140.7912  139.7164  163.4950 C.ar    1  UNL1        0.0192
     11 C         140.4459  138.6495  162.4987 C.ar    1  UNL1        0.0015
     12 C         139.4028  137.6236  162.8296 C.ar    1  UNL1       -0.0000
     13 C         138.7050  137.6645  164.1567 C.ar    1  UNL1        0.0039
     14 C         139.0502  138.7314  165.1530 C.ar    1  UNL1        0.0715
     15 C         140.0933  139.7573  164.8221 C.ar    1  UNL1        0.0054
     16 C         138.3524  138.7723  166.4802 C.3     1  UNL1        0.4186
     17 F         137.6546  138.8133  167.8074 F       1  UNL1       -0.1659
     18 F         138.8259  140.1807  166.6857 F       1  UNL1       -0.1659
     19 F         137.8789  137.3639  166.2747 F       1  UNL1       -0.1659
     20 N         143.4674  142.6105  167.8829 N.pl3   1  UNL1       -0.3184
     21 H         144.1453  143.1340  168.3682 H       1  UNL1        0.1482
     22 O         139.2413  139.6255  170.9208 O.3     1  UNL1       -0.3845
     23 C         140.2978  140.3717  170.1613 C.3     1  UNL1        0.1106
     24 C         141.6142  139.7158  169.8670 C.3     1  UNL1        0.0309
     25 C         142.6708  140.4621  169.1075 C.3     1  UNL1        0.0220
     26 C         142.4109  141.8642  168.6424 C.3     1  UNL1        0.0706
     27 C         141.0943  142.5202  168.9367 C.3     1  UNL1        0.0220
     28 C         140.0378  141.7739  169.6962 C.3     1  UNL1        0.0309
     29 H         139.5685  138.7402  171.1446 H       1  UNL1        0.2103
@<TRIPOS>BOND
     1    23    22    1
     2    23    24    1
     3    24    25    1
     4    25    26    1
     5    26    20    1
     6    20     1    1
     7     1     2   ar
     8     2     3   ar
     9     3     4   ar
    10     4     5   ar
    11     5     6   ar
    12     6     7   ar
    13     7    10    1
    14    10    11   ar
    15    11    12   ar
    16    12    13   ar
    17    13    14   ar
    18    14    16    1
    19    16    17    1
    20    16    18    1
    21    16    19    1
    22    14    15   ar
    23     7     8   ar
    24     8     9   ar
    25    26    27    1
    26    27    28    1
    27    28    23    1
    28     9     1   ar
    29     8     4   ar
    30    15    10   ar
    31    22    29    1
    32    20    21    1
@<TRIPOS>MOLECULE
*****
 29 32 0 0 0
SMALL
GASTEIGER

@<TRIPOS>ATOM
      1 C         139.2706  139.7431  167.1400 C.ar    1  UNL1        0.1488
      2 C         138.5474  138.5287  166.6381 C.ar    1  UNL1        0.0390
      3 C         138.4051  138.2968  165.1630 C.ar    1  UNL1        0.0417
      4 C         138.9862  139.2793  164.1899 C.ar    1  UNL1        0.1640
      5 N         139.0036  139.3162  162.6903 N.ar    1  UNL1       -0.2234
      6 C         139.7376  140.5534  162.2656 C.ar    1  UNL1        0.1197
      7 C         140.1739  141.2812  163.5026 C.ar    1  UNL1        0.1036
      8 N         139.7094  140.4938  164.6918 N.ar    1  UNL1       -0.2096
      9 N         139.8517  140.7257  166.1669 N.ar    1  UNL1       -0.1489
     10 C         140.9400  142.5701  163.5432 C.ar    1  UNL1        0.0192
     11 C         140.4592  143.7535  162.7569 C.ar    1  UNL1        0.0015
     12 C         141.2254  145.0424  162.7975 C.ar    1  UNL1       -0.0000
     13 C         142.4724  145.1480  163.6243 C.ar    1  UNL1        0.0039
     14 C         142.9532  143.9646  164.4106 C.ar    1  UNL1        0.0715
     15 C         142.1871  142.6757  164.3700 C.ar    1  UNL1        0.0054
     16 C         144.2003  144.0701  165.2376 C.3     1  UNL1        0.4186
     17 F         145.4473  144.1755  166.0645 F       1  UNL1       -0.1659
     18 F         144.1053  142.6098  165.5671 F       1  UNL1       -0.1659
     19 F         144.2953  145.5303  164.9081 F       1  UNL1       -0.1659
     20 N         139.4129  139.9751  168.6152 N.pl3   1  UNL1       -0.3184
     21 H         138.7796  139.5573  169.2425 H       1  UNL1        0.1482
     22 O         143.8416  143.4495  170.6924 O.3     1  UNL1       -0.3845
     23 C         142.7344  142.5809  170.1731 C.3     1  UNL1        0.1106
     24 C         142.9984  141.1387  169.8565 C.3     1  UNL1        0.0309
     25 C         141.8912  140.2700  169.3371 C.3     1  UNL1        0.0220
     26 C         140.5201  140.8437  169.1345 C.3     1  UNL1        0.0706
     27 C         140.2562  142.2860  169.4512 C.3     1  UNL1        0.0220
     28 C         141.3633  143.1546  169.9705 C.3     1  UNL1        0.0309
     29 H         144.6558  142.9271  170.7642 H       1  UNL1        0.2103
@<TRIPOS>BOND
     1    23    22    1
     2    23    24    1
     3    24    25    1
     4    25    26    1
     5    26    20    1
     6    20     1    1
     7     1     2   ar
     8     2     3   ar
     9     3     4   ar
    10     4     5   ar
    11     5     6   ar
    12     6     7   ar
    13     7    10    1
    14    10    11   ar
    15    11    12   ar
    16    12    13   ar
    17    13    14   ar
    18    14    16    1
    19    16    17    1
    20    16    18    1
    21    16    19    1
    22    14    15   ar
    23     7     8   ar
    24     8     9   ar
    25    26    27    1
    26    27    28    1
    27    28    23    1
    28     9     1   ar
    29     8     4   ar
    30    15    10   ar
    31    22    29    1
    32    20    21    1
@<TRIPOS>MOLECULE
*****
 29 32 0 0 0
SMALL
GASTEIGER

@<TRIPOS>ATOM
      1 C         143.2321  142.4483  167.3300 C.ar    1  UNL1        0.1488
      2 C         143.4848  142.0345  168.7495 C.ar    1  UNL1        0.0390
      3 C         142.4897  141.1723  169.4679 C.ar    1  UNL1        0.0417
      4 C         141.2418  140.7237  168.7668 C.ar    1  UNL1        0.1640
      5 N         140.0882  139.8761  169.2150 N.ar    1  UNL1       -0.2234
      6 C         139.1225  139.7660  168.0725 C.ar    1  UNL1        0.1197
      7 C         139.6792  140.5455  166.9183 C.ar    1  UNL1        0.1036
      8 N         140.9890  141.1375  167.3473 N.ar    1  UNL1       -0.2096
      9 N         141.9841  141.9997  166.6290 N.ar    1  UNL1       -0.1489
     10 C         139.0386  140.7052  165.5714 C.ar    1  UNL1        0.0192
     11 C         138.7359  139.4961  164.7368 C.ar    1  UNL1        0.0015
     12 C         138.0953  139.6558  163.3899 C.ar    1  UNL1       -0.0000
     13 C         137.7575  141.0244  162.8775 C.ar    1  UNL1        0.0039
     14 C         138.0602  142.2335  163.7121 C.ar    1  UNL1        0.0715
     15 C         138.7008  142.0738  165.0590 C.ar    1  UNL1        0.0054
     16 C         137.7223  143.6023  163.1997 C.3     1  UNL1        0.4186
     17 F         137.3845  144.9710  162.6874 F       1  UNL1       -0.1659
     18 F         137.7485  144.1336  164.6022 F       1  UNL1       -0.1659
     19 F         137.6962  143.0708  161.7973 F       1  UNL1       -0.1659
     20 N         144.2272  143.3106  166.6116 N.pl3   1  UNL1       -0.3184
     21 H         144.8414  143.8848  167.1237 H       1  UNL1        0.1482
     22 O         144.4648  143.2602  160.6165 O.3     1  UNL1       -0.3845
     23 C         144.4054  143.2728  162.1153 C.3     1  UNL1        0.1106
     24 C         145.0463  142.1671  162.9005 C.3     1  UNL1        0.0309
     25 C         144.9869  142.1797  164.3994 C.3     1  UNL1        0.0220
     26 C         144.2866  143.2980  165.1128 C.3     1  UNL1        0.0706
     27 C         143.6457  144.4037  164.3275 C.3     1  UNL1        0.0220
     28 C         143.7052  144.3911  162.8287 C.3     1  UNL1        0.0309
     29 H         144.9497  142.4746  160.3188 H       1  UNL1        0.2103
@<TRIPOS>BOND
     1    23    22    1
     2    23    24    1
     3    24    25    1
     4    25    26    1
     5    26    20    1
     6    20     1    1
     7     1     2   ar
     8     2     3   ar
     9     3     4   ar
    10     4     5   ar
    11     5     6   ar
    12     6     7   ar
    13     7    10    1
    14    10    11   ar
    15    11    12   ar
    16    12    13   ar
    17    13    14   ar
    18    14    16    1
    19    16    17    1
    20    16    18    1
    21    16    19    1
    22    14    15   ar
    23     7     8   ar
    24     8     9   ar
    25    26    27    1
    26    27    28    1
    27    28    23    1
    28     9     1   ar
    29     8     4   ar
    30    15    10   ar
    31    22    29    1
    32    20    21    1
@<TRIPOS>MOLECULE
*****
 29 32 0 0 0
SMALL
GASTEIGER

@<TRIPOS>ATOM
      1 C         142.4100  139.8964  166.5447 C.ar    1  UNL1        0.1488
      2 C         142.9028  138.4985  166.3144 C.ar    1  UNL1        0.0390
      3 C         142.4318  137.7247  165.1189 C.ar    1  UNL1        0.0417
      4 C         141.4680  138.3488  164.1536 C.ar    1  UNL1        0.1640
      5 N         140.8325  137.8345  162.8960 N.ar    1  UNL1       -0.2234
      6 C         139.9469  138.9146  162.3490 C.ar    1  UNL1        0.1197
      7 C         140.0351  140.0963  163.2687 C.ar    1  UNL1        0.1036
      8 N         140.9752  139.7466  164.3839 N.ar    1  UNL1       -0.2096
      9 N         141.4462  140.5204  165.5795 N.ar    1  UNL1       -0.1489
     10 C         139.3105  141.3991  163.1022 C.ar    1  UNL1        0.0192
     11 C         138.6532  141.7300  161.7951 C.ar    1  UNL1        0.0015
     12 C         137.9285  143.0328  161.6287 C.ar    1  UNL1       -0.0000
     13 C         137.8611  144.0046  162.7692 C.ar    1  UNL1        0.0039
     14 C         138.5185  143.6737  164.0763 C.ar    1  UNL1        0.0715
     15 C         139.2431  142.3709  164.2428 C.ar    1  UNL1        0.0054
     16 C         138.4511  144.6455  165.2170 C.3     1  UNL1        0.4186
     17 F         138.3837  145.6173  166.3576 F       1  UNL1       -0.1659
     18 F         136.9663  144.4484  165.2972 F       1  UNL1       -0.1659
     19 F         139.9359  144.8426  165.1367 F       1  UNL1       -0.1659
     20 N         142.8810  140.6703  167.7403 N.pl3   1  UNL1       -0.3184
     21 H         143.8443  140.7474  167.9285 H       1  UNL1        0.1482
     22 O         138.8945  143.2957  171.3754 O.3     1  UNL1       -0.3845
     23 C         139.8911  142.6394  170.4666 C.3     1  UNL1        0.1106
     24 C         139.6597  141.2368  169.9880 C.3     1  UNL1        0.0309
     25 C         140.6563  140.5804  169.0792 C.3     1  UNL1        0.0220
     26 C         141.8844  141.3266  168.6490 C.3     1  UNL1        0.0706
     27 C         142.1158  142.7293  169.1278 C.3     1  UNL1        0.0220
     28 C         141.1192  143.3856  170.0365 C.3     1  UNL1        0.0309
     29 H         138.1659  142.6808  171.5542 H       1  UNL1        0.2103
@<TRIPOS>BOND
     1    23    22    1
     2    23    24    1
     3    24    25    1
     4    25    26    1
     5    26    20    1
     6    20     1    1
     7     1     2   ar
     8     2     3   ar
     9     3     4   ar
    10     4     5   ar
    11     5     6   ar
    12     6     7   ar
    13     7    10    1
    14    10    11   ar
    15    11    12   ar
    16    12    13   ar
    17    13    14   ar
    18    14    16    1
    19    16    17    1
    20    16    18    1
    21    16    19    1
    22    14    15   ar
    23     7     8   ar
    24     8     9   ar
    25    26    27    1
    26    27    28    1
    27    28    23    1
    28     9     1   ar
    29     8     4   ar
    30    15    10   ar
    31    22    29    1
    32    20    21    1
@<TRIPOS>MOLECULE
*****
 29 32 0 0 0
SMALL
GASTEIGER

@<TRIPOS>ATOM
      1 C         142.8798  139.7404  167.3099 C.ar    1  UNL1        0.1488
      2 C         143.2766  138.3667  166.8566 C.ar    1  UNL1        0.0390
      3 C         143.1486  137.9879  165.4109 C.ar    1  UNL1        0.0417
      4 C         142.6238  138.9828  164.4185 C.ar    1  UNL1        0.1640
      5 N         142.3880  138.8965  162.9396 N.ar    1  UNL1       -0.2234
      6 C         141.8454  140.2168  162.4790 C.ar    1  UNL1        0.1197
      7 C         141.7460  141.1191  163.6731 C.ar    1  UNL1        0.1036
      8 N         142.2270  140.3564  164.8718 N.ar    1  UNL1       -0.2096
      9 N         142.3550  140.7353  166.3175 N.ar    1  UNL1       -0.1489
     10 C         141.2521  142.5355  163.6693 C.ar    1  UNL1        0.0192
     11 C         142.0461  143.6047  162.9790 C.ar    1  UNL1        0.0015
     12 C         141.5523  145.0211  162.9752 C.ar    1  UNL1       -0.0000
     13 C         140.2645  145.3683  163.6615 C.ar    1  UNL1        0.0039
     14 C         139.4706  144.2991  164.3518 C.ar    1  UNL1        0.0715
     15 C         139.9644  142.8827  164.3556 C.ar    1  UNL1        0.0054
     16 C         138.1827  144.6463  165.0382 C.3     1  UNL1        0.4186
     17 F         136.8950  144.9935  165.7246 F       1  UNL1       -0.1659
     18 F         138.9400  144.9829  166.2885 F       1  UNL1       -0.1659
     19 F         137.4256  144.3097  163.7878 F       1  UNL1       -0.1659
     20 N         143.0078  140.1193  168.7556 N.pl3   1  UNL1       -0.3184
     21 H         143.7781  139.8033  169.2810 H       1  UNL1        0.1482
     22 O         138.8250  143.5605  171.3368 O.3     1  UNL1       -0.3845
     23 C         139.8707  142.7002  170.6915 C.3     1  UNL1        0.1106
     24 C         141.1595  143.3093  170.2247 C.3     1  UNL1        0.0309
     25 C         142.2053  142.4490  169.5794 C.3     1  UNL1        0.0220
     26 C         141.9621  140.9796  169.4009 C.3     1  UNL1        0.0706
     27 C         140.6732  140.3705  169.8678 C.3     1  UNL1        0.0220
     28 C         139.6276  141.2308  170.5131 C.3     1  UNL1        0.0309
     29 H         139.1389  144.4775  171.3744 H       1  UNL1        0.2103
@<TRIPOS>BOND
     1    23    22    1
     2    23    24    1
     3    24    25    1
     4    25    26    1
     5    26    20    1
     6    20     1    1
     7     1     2   ar
     8     2     3   ar
     9     3     4   ar
    10     4     5   ar
    11     5     6   ar
    12     6     7   ar
    13     7    10    1
    14    10    11   ar
    15    11    12   ar
    16    12    13   ar
    17    13    14   ar
    18    14    16    1
    19    16    17    1
    20    16    18    1
    21    16    19    1
    22    14    15   ar
    23     7     8   ar
    24     8     9   ar
    25    26    27    1
    26    27    28    1
    27    28    23    1
    28     9     1   ar
    29     8     4   ar
    30    15    10   ar
    31    22    29    1
    32    20    21    1
@<TRIPOS>MOLECULE
*****
 29 32 0 0 0
SMALL
GASTEIGER

@<TRIPOS>ATOM
      1 C         143.1762  142.4145  167.2594 C.ar    1  UNL1        0.1488
      2 C         143.4196  141.9438  168.6627 C.ar    1  UNL1        0.0390
      3 C         142.4064  141.0766  169.3492 C.ar    1  UNL1        0.0417
      4 C         141.1498  140.6801  168.6324 C.ar    1  UNL1        0.1640
      5 N         139.9786  139.8407  169.0495 N.ar    1  UNL1       -0.2234
      6 C         139.0114  139.7927  167.9040 C.ar    1  UNL1        0.1197
      7 C         139.5849  140.6023  166.7789 C.ar    1  UNL1        0.1036
      8 N         140.9064  141.1508  167.2291 N.ar    1  UNL1       -0.2096
      9 N         141.9196  142.0180  166.5426 N.ar    1  UNL1       -0.1489
     10 C         138.9485  140.8246  165.4389 C.ar    1  UNL1        0.0192
     11 C         138.4915  142.1976  165.0441 C.ar    1  UNL1        0.0015
     12 C         137.8551  142.4198  163.7041 C.ar    1  UNL1       -0.0000
     13 C         137.6756  141.2690  162.7589 C.ar    1  UNL1        0.0039
     14 C         138.1326  139.8960  163.1537 C.ar    1  UNL1        0.0715
     15 C         138.7690  139.6738  164.4937 C.ar    1  UNL1        0.0054
     16 C         137.9532  138.7451  162.2085 C.3     1  UNL1        0.4186
     17 F         137.7738  137.5942  161.2634 F       1  UNL1       -0.1659
     18 F         138.5899  137.8252  163.2077 F       1  UNL1       -0.1659
     19 F         137.3165  139.6649  161.2093 F       1  UNL1       -0.1659
     20 N         144.1895  143.2817  166.5728 N.pl3   1  UNL1       -0.3184
     21 H         144.7850  143.8581  167.1043 H       1  UNL1        0.1482
     22 O         144.6129  143.2380  160.5880 O.3     1  UNL1       -0.3845
     23 C         144.5071  143.2489  162.0842 C.3     1  UNL1        0.1106
     24 C         143.8310  144.3930  162.7799 C.3     1  UNL1        0.0309
     25 C         143.7251  144.4040  164.2761 C.3     1  UNL1        0.0220
     26 C         144.2953  143.2708  165.0767 C.3     1  UNL1        0.0706
     27 C         144.9714  142.1267  164.3809 C.3     1  UNL1        0.0220
     28 C         145.0773  142.1158  162.8847 C.3     1  UNL1        0.0309
     29 H         144.1970  144.0373  160.2286 H       1  UNL1        0.2103
@<TRIPOS>BOND
     1    23    22    1
     2    23    24    1
     3    24    25    1
     4    25    26    1
     5    26    20    1
     6    20     1    1
     7     1     2   ar
     8     2     3   ar
     9     3     4   ar
    10     4     5   ar
    11     5     6   ar
    12     6     7   ar
    13     7    10    1
    14    10    11   ar
    15    11    12   ar
    16    12    13   ar
    17    13    14   ar
    18    14    16    1
    19    16    17    1
    20    16    18    1
    21    16    19    1
    22    14    15   ar
    23     7     8   ar
    24     8     9   ar
    25    26    27    1
    26    27    28    1
    27    28    23    1
    28     9     1   ar
    29     8     4   ar
    30    15    10   ar
    31    22    29    1
    32    20    21    1
@<TRIPOS>MOLECULE
*****
 29 32 0 0 0
SMALL
GASTEIGER

@<TRIPOS>ATOM
      1 C         139.5557  139.3886  165.7399 C.ar    1  UNL1        0.1488
      2 C         138.9872  138.0430  165.3993 C.ar    1  UNL1        0.0390
      3 C         139.4728  137.3094  164.1844 C.ar    1  UNL1        0.0417
      4 C         140.5269  137.9213  163.3102 C.ar    1  UNL1        0.1640
      5 N         141.1967  137.4386  162.0578 N.ar    1  UNL1       -0.2234
      6 C         142.1791  138.4859  161.6244 C.ar    1  UNL1        0.1197
      7 C         142.1166  139.6159  162.6089 C.ar    1  UNL1        0.1036
      8 N         141.0955  139.2669  163.6508 N.ar    1  UNL1       -0.2096
      9 N         140.6099  140.0006  164.8657 N.ar    1  UNL1       -0.1489
     10 C         142.9320  140.8740  162.5602 C.ar    1  UNL1        0.0192
     11 C         144.3617  140.8241  162.1091 C.ar    1  UNL1        0.0015
     12 C         145.1771  142.0821  162.0604 C.ar    1  UNL1       -0.0000
     13 C         144.5629  143.3901  162.4627 C.ar    1  UNL1        0.0039
     14 C         143.1332  143.4400  162.9137 C.ar    1  UNL1        0.0715
     15 C         142.3178  142.1819  162.9625 C.ar    1  UNL1        0.0054
     16 C         142.5188  144.7480  163.3161 C.3     1  UNL1        0.4186
     17 F         141.9046  146.0560  163.7184 F       1  UNL1       -0.1659
     18 F         143.8535  145.4180  163.1757 F       1  UNL1       -0.1659
     19 F         141.1842  144.0780  163.4565 F       1  UNL1       -0.1659
     20 N         139.0701  140.1223  166.9548 N.pl3   1  UNL1       -0.3184
     21 H         138.1836  140.5503  166.9497 H       1  UNL1        0.1482
     22 O         142.5310  140.4485  171.8452 O.3     1  UNL1       -0.3845
     23 C         141.6658  140.3669  170.6226 C.3     1  UNL1        0.1106
     24 C         140.1812  140.5452  170.7412 C.3     1  UNL1        0.0309
     25 C         139.3159  140.4637  169.5186 C.3     1  UNL1        0.0220
     26 C         139.9353  140.2039  168.1774 C.3     1  UNL1        0.0706
     27 C         141.4200  140.0256  168.0588 C.3     1  UNL1        0.0220
     28 C         142.2852  140.1071  169.2814 C.3     1  UNL1        0.0309
     29 H         141.9768  140.6203  172.6226 H       1  UNL1        0.2103
@<TRIPOS>BOND
     1    23    22    1
     2    23    24    1
     3    24    25    1
     4    25    26    1
     5    26    20    1
     6    20     1    1
     7     1     2   ar
     8     2     3   ar
     9     3     4   ar
    10     4     5   ar
    11     5     6   ar
    12     6     7   ar
    13     7    10    1
    14    10    11   ar
    15    11    12   ar
    16    12    13   ar
    17    13    14   ar
    18    14    16    1
    19    16    17    1
    20    16    18    1
    21    16    19    1
    22    14    15   ar
    23     7     8   ar
    24     8     9   ar
    25    26    27    1
    26    27    28    1
    27    28    23    1
    28     9     1   ar
    29     8     4   ar
    30    15    10   ar
    31    22    29    1
    32    20    21    1
