@<TRIPOS>MOLECULE
*****
 43 47 0 0 0
SMALL
GASTEIGER

@<TRIPOS>ATOM
      1 C         137.2741  141.6818  156.6635 C.2     1  UNL1        0.2458
      2 O         137.1651  140.5575  157.6504 O.2     1  UNL1       -0.2730
      3 N         138.2945  142.7622  156.8671 N.am    1  UNL1       -0.2767
      4 C         138.5195  143.9429  155.9697 C.3     1  UNL1        0.0949
      5 C         139.6332  144.7620  156.5517 C.3     1  UNL1        0.0390
      6 C         140.0966  144.0874  157.8088 C.3     1  UNL1        0.0758
      7 C         139.2692  142.8515  158.0037 C.3     1  UNL1        0.1091
      8 N         141.1945  144.5650  158.7124 N.3     1  UNL1       -0.2982
      9 H         141.4059  145.5242  158.4374 H       1  UNL1        0.1232
     10 C         140.9915  144.5754  160.1986 C.3     1  UNL1        0.0542
     11 C         140.1837  145.6658  160.8376 C.3     1  UNL1        0.0185
     12 C         139.9808  145.6762  162.3238 C.3     1  UNL1        0.0340
     13 C         140.5857  144.5961  163.1709 C.3     1  UNL1        0.1231
     14 O         139.9059  145.4096  164.2321 O.3     1  UNL1       -0.3812
     15 C         141.3935  143.5057  162.5319 C.3     1  UNL1        0.0340
     16 C         141.5964  143.4953  161.0457 C.3     1  UNL1        0.0185
     17 H         139.4580  146.1661  163.8223 H       1  UNL1        0.2107
     18 C         140.9544  143.7986  164.3866 C.ar    1  UNL1        0.0830
     19 C         139.8943  143.3913  165.3665 C.ar    1  UNL1        0.0171
     20 C         140.2632  142.5938  166.5822 C.ar    1  UNL1        0.0049
     21 C         141.6922  142.2037  166.8180 C.ar    1  UNL1        0.0430
     22 C         142.7523  142.6110  165.8382 C.ar    1  UNL1        0.1005
     23 N         142.3835  143.4084  164.6225 N.ar    1  UNL1       -0.2458
     24 C         142.0610  141.4061  168.0338 C.ar    1  UNL1        0.1123
     25 N         141.5477  140.0402  168.3813 N.ar    1  UNL1       -0.2367
     26 C         142.1772  139.6244  169.6777 C.ar    1  UNL1        0.1064
     27 C         143.0796  140.7333  170.1315 C.ar    1  UNL1        0.0575
     28 S         143.0078  141.8346  169.1155 S.2     1  UNL1       -0.0658
     29 C         136.3625  141.7257  155.4731 C.3     1  UNL1        0.1761
     30 O         134.8643  139.1292  155.5900 O.2     1  UNL1       -0.2701
     31 C         134.1260  140.4279  155.7254 C.2     1  UNL1        0.2462
     32 N         134.8751  141.7261  155.6669 N.am    1  UNL1       -0.2931
     33 H         134.3905  142.5785  155.7557 H       1  UNL1        0.1502
     34 C         132.6386  140.4284  155.9192 C.ar    1  UNL1        0.0533
     35 C         131.8007  141.5022  155.2909 C.ar    1  UNL1        0.0045
     36 C         130.3132  141.5027  155.4847 C.ar    1  UNL1        0.0001
     37 C         129.6637  140.4293  156.3068 C.ar    1  UNL1        0.0039
     38 C         130.5016  139.3555  156.9351 C.ar    1  UNL1        0.0716
     39 C         131.9890  139.3550  156.7413 C.ar    1  UNL1        0.0084
     40 C         129.8520  138.2821  157.7573 C.3     1  UNL1        0.4186
     41 F         129.2024  137.2087  158.5795 F       1  UNL1       -0.1659
     42 F         130.1245  137.2848  156.6705 F       1  UNL1       -0.1659
     43 F         129.5796  139.2794  158.8441 F       1  UNL1       -0.1659
@<TRIPOS>BOND
     1    30    31    2
     2    31    32   am
     3    32    29    1
     4    29     1    1
     5     1     2    2
     6     1     3   am
     7     3     4    1
     8     4     5    1
     9     5     6    1
    10     6     8    1
    11    10     8    1
    12    10    11    1
    13    11    12    1
    14    12    13    1
    15    13    14    1
    16    13    18    1
    17    18    19   ar
    18    19    20   ar
    19    20    21   ar
    20    21    24    1
    21    24    25   ar
    22    25    26   ar
    23    26    27   ar
    24    27    28   ar
    25    21    22   ar
    26    22    23   ar
    27    13    15    1
    28    15    16    1
    29     6     7    1
    30    31    34    1
    31    34    35   ar
    32    35    36   ar
    33    36    37   ar
    34    37    38   ar
    35    38    40    1
    36    40    41    1
    37    40    42    1
    38    40    43    1
    39    38    39   ar
    40     7     3    1
    41    39    34   ar
    42    16    10    1
    43    23    18   ar
    44    28    24   ar
    45    32    33    1
    46     8     9    1
    47    14    17    1
@<TRIPOS>MOLECULE
*****
 43 47 0 0 0
SMALL
GASTEIGER

@<TRIPOS>ATOM
      1 C         138.1010  143.0399  162.2335 C.2     1  UNL1        0.2458
      2 O         138.4728  144.4059  161.7378 O.2     1  UNL1       -0.2730
      3 N         138.0953  141.8750  161.2885 N.am    1  UNL1       -0.2767
      4 C         137.7473  140.4582  161.6376 C.3     1  UNL1        0.0949
      5 C         137.8736  139.6300  160.3934 C.3     1  UNL1        0.0390
      6 C         138.2996  140.5348  159.2754 C.3     1  UNL1        0.0758
      7 C         138.4367  141.9223  159.8286 C.3     1  UNL1        0.1091
      8 N         138.5454  140.1242  157.8538 N.3     1  UNL1       -0.2982
      9 H         138.5836  140.9813  157.3022 H       1  UNL1        0.1232
     10 C         139.7682  139.3290  157.5035 C.3     1  UNL1        0.0542
     11 C         141.1180  139.9830  157.5189 C.3     1  UNL1        0.0185
     12 C         142.3406  139.1878  157.1687 C.3     1  UNL1        0.0340
     13 C         142.2135  137.7386  156.8030 C.3     1  UNL1        0.1231
     14 O         143.6982  137.9100  156.6761 O.3     1  UNL1       -0.3812
     15 C         140.8637  137.0846  156.7876 C.3     1  UNL1        0.0340
     16 C         139.6410  137.8798  157.1378 C.3     1  UNL1        0.0185
     17 H         143.9374  138.8257  156.8888 H       1  UNL1        0.2107
     18 C         142.6021  136.3490  156.3932 C.ar    1  UNL1        0.0830
     19 C         142.3586  135.8858  154.9875 C.ar    1  UNL1        0.0171
     20 C         142.7472  134.4961  154.5778 C.ar    1  UNL1        0.0049
     21 C         143.3793  133.5697  155.5739 C.ar    1  UNL1        0.0430
     22 C         143.6228  134.0329  156.9796 C.ar    1  UNL1        0.1005
     23 N         143.2342  135.4225  157.3893 N.ar    1  UNL1       -0.2458
     24 C         143.7679  132.1800  155.1641 C.ar    1  UNL1        0.1123
     25 N         144.7551  131.2969  155.8680 N.ar    1  UNL1       -0.2367
     26 C         144.8349  130.0006  155.1175 C.ar    1  UNL1        0.1064
     27 C         143.8969  130.0825  153.9499 C.ar    1  UNL1        0.0575
     28 S         143.2375  131.4295  153.9786 S.2     1  UNL1       -0.0658
     29 C         137.7349  142.8388  163.6741 C.3     1  UNL1        0.1761
     30 O         139.5301  144.8680  164.9625 O.2     1  UNL1       -0.2701
     31 C         139.6753  143.4144  165.3030 C.2     1  UNL1        0.2462
     32 N         138.7778  142.3999  164.6589 N.am    1  UNL1       -0.2931
     33 H         138.8731  141.4458  164.8824 H       1  UNL1        0.1502
     34 C         140.7182  142.9753  166.2878 C.ar    1  UNL1        0.0533
     35 C         142.1040  142.6477  165.8165 C.ar    1  UNL1        0.0045
     36 C         143.1469  142.2086  166.8013 C.ar    1  UNL1        0.0001
     37 C         142.8039  142.0971  168.2573 C.ar    1  UNL1        0.0039
     38 C         141.4180  142.4248  168.7285 C.ar    1  UNL1        0.0716
     39 C         140.3752  142.8639  167.7438 C.ar    1  UNL1        0.0084
     40 C         141.0750  142.3133  170.1845 C.3     1  UNL1        0.4186
     41 F         140.7321  142.2019  171.6406 F       1  UNL1       -0.1659
     42 F         139.8170  143.0953  169.9480 F       1  UNL1       -0.1659
     43 F         142.3331  141.5314  170.4210 F       1  UNL1       -0.1659
@<TRIPOS>BOND
     1    30    31    2
     2    31    32   am
     3    32    29    1
     4    29     1    1
     5     1     2    2
     6     1     3   am
     7     3     4    1
     8     4     5    1
     9     5     6    1
    10     6     8    1
    11    10     8    1
    12    10    11    1
    13    11    12    1
    14    12    13    1
    15    13    14    1
    16    13    18    1
    17    18    19   ar
    18    19    20   ar
    19    20    21   ar
    20    21    24    1
    21    24    25   ar
    22    25    26   ar
    23    26    27   ar
    24    27    28   ar
    25    21    22   ar
    26    22    23   ar
    27    13    15    1
    28    15    16    1
    29     6     7    1
    30    31    34    1
    31    34    35   ar
    32    35    36   ar
    33    36    37   ar
    34    37    38   ar
    35    38    40    1
    36    40    41    1
    37    40    42    1
    38    40    43    1
    39    38    39   ar
    40     7     3    1
    41    39    34   ar
    42    16    10    1
    43    23    18   ar
    44    28    24   ar
    45    32    33    1
    46     8     9    1
    47    14    17    1
@<TRIPOS>MOLECULE
*****
 43 47 0 0 0
SMALL
GASTEIGER

@<TRIPOS>ATOM
      1 C         138.0680  143.1958  162.7414 C.2     1  UNL1        0.2458
      2 O         137.6861  144.6431  162.8380 O.2     1  UNL1       -0.2730
      3 N         138.8743  142.7092  161.5739 N.am    1  UNL1       -0.2767
      4 C         139.3284  141.2984  161.3427 C.3     1  UNL1        0.0949
      5 C         140.1028  141.2653  160.0585 C.3     1  UNL1        0.0390
      6 C         140.1273  142.6556  159.4960 C.3     1  UNL1        0.0758
      7 C         139.3680  143.5480  160.4325 C.3     1  UNL1        0.1091
      8 N         140.7940  143.0792  158.2208 N.3     1  UNL1       -0.2982
      9 H         140.8786  142.2441  157.6413 H       1  UNL1        0.1232
     10 C         140.1685  144.1395  157.3637 C.3     1  UNL1        0.0542
     11 C         138.9632  143.8165  156.5312 C.3     1  UNL1        0.0185
     12 C         138.3378  144.8768  155.6742 C.3     1  UNL1        0.0340
     13 C         138.9175  146.2600  155.6496 C.3     1  UNL1        0.1231
     14 O         137.7759  146.4390  154.6932 O.3     1  UNL1       -0.3812
     15 C         140.1228  146.5829  156.4820 C.3     1  UNL1        0.0340
     16 C         140.7482  145.5227  157.3391 C.3     1  UNL1        0.0185
     17 H         137.2936  145.6020  154.6051 H       1  UNL1        0.2107
     18 C         139.1008  147.7054  155.2928 C.ar    1  UNL1        0.0830
     19 C         139.8705  148.0823  154.0618 C.ar    1  UNL1        0.0171
     20 C         140.0537  149.5278  153.7051 C.ar    1  UNL1        0.0049
     21 C         139.4672  150.5962  154.5794 C.ar    1  UNL1        0.0430
     22 C         138.6974  150.2192  155.8104 C.ar    1  UNL1        0.1005
     23 N         138.5142  148.7738  156.1671 N.ar    1  UNL1       -0.2458
     24 C         139.6504  152.0416  154.2226 C.ar    1  UNL1        0.1123
     25 N         140.9624  152.7521  154.0681 N.ar    1  UNL1       -0.2367
     26 C         140.6767  154.1798  153.7077 C.ar    1  UNL1        0.1064
     27 C         139.1882  154.3518  153.6395 C.ar    1  UNL1        0.0575
     28 S         138.5538  153.0303  153.9577 S.2     1  UNL1       -0.0658
     29 C         137.6436  142.2351  163.8123 C.3     1  UNL1        0.1761
     30 O         139.3539  143.9817  165.5513 O.2     1  UNL1       -0.2701
     31 C         139.5246  142.4919  165.5859 C.2     1  UNL1        0.2462
     32 N         138.6695  141.6186  164.7165 N.am    1  UNL1       -0.2931
     33 H         138.7815  140.6407  164.7392 H       1  UNL1        0.1502
     34 C         140.5505  141.8753  166.4900 C.ar    1  UNL1        0.0533
     35 C         141.0180  140.4710  166.2463 C.ar    1  UNL1        0.0045
     36 C         142.0439  139.8544  167.1504 C.ar    1  UNL1        0.0001
     37 C         142.6022  140.6421  168.2983 C.ar    1  UNL1        0.0039
     38 C         142.1348  142.0464  168.5421 C.ar    1  UNL1        0.0716
     39 C         141.1089  142.6630  167.6379 C.ar    1  UNL1        0.0084
     40 C         142.6932  142.8341  169.6900 C.3     1  UNL1        0.4186
     41 F         143.2516  143.6218  170.8379 F       1  UNL1       -0.1659
     42 F         141.3873  143.5591  169.8277 F       1  UNL1       -0.1659
     43 F         143.9990  142.1090  169.5523 F       1  UNL1       -0.1659
@<TRIPOS>BOND
     1    30    31    2
     2    31    32   am
     3    32    29    1
     4    29     1    1
     5     1     2    2
     6     1     3   am
     7     3     4    1
     8     4     5    1
     9     5     6    1
    10     6     8    1
    11    10     8    1
    12    10    11    1
    13    11    12    1
    14    12    13    1
    15    13    14    1
    16    13    18    1
    17    18    19   ar
    18    19    20   ar
    19    20    21   ar
    20    21    24    1
    21    24    25   ar
    22    25    26   ar
    23    26    27   ar
    24    27    28   ar
    25    21    22   ar
    26    22    23   ar
    27    13    15    1
    28    15    16    1
    29     6     7    1
    30    31    34    1
    31    34    35   ar
    32    35    36   ar
    33    36    37   ar
    34    37    38   ar
    35    38    40    1
    36    40    41    1
    37    40    42    1
    38    40    43    1
    39    38    39   ar
    40     7     3    1
    41    39    34   ar
    42    16    10    1
    43    23    18   ar
    44    28    24   ar
    45    32    33    1
    46     8     9    1
    47    14    17    1
@<TRIPOS>MOLECULE
*****
 43 47 0 0 0
SMALL
GASTEIGER

@<TRIPOS>ATOM
      1 C         140.6184  145.3132  161.9208 C.2     1  UNL1        0.2458
      2 O         139.3549  146.0541  161.5973 O.2     1  UNL1       -0.2730
      3 N         141.2787  144.4643  160.8752 N.am    1  UNL1       -0.2767
      4 C         142.5388  143.6697  161.0512 C.3     1  UNL1        0.0949
      5 C         142.8338  142.9753  159.7548 C.3     1  UNL1        0.0390
      6 C         141.7560  143.3406  158.7775 C.3     1  UNL1        0.0758
      7 C         140.7950  144.2609  159.4700 C.3     1  UNL1        0.1091
      8 N         141.6568  142.8686  157.3572 N.3     1  UNL1       -0.2982
      9 H         142.0568  143.6037  156.7740 H       1  UNL1        0.1232
     10 C         142.3135  141.5842  156.9461 C.3     1  UNL1        0.0542
     11 C         143.7296  141.5906  156.4516 C.3     1  UNL1        0.0185
     12 C         144.3863  140.3062  156.0405 C.3     1  UNL1        0.0340
     13 C         143.6268  139.0153  156.1239 C.3     1  UNL1        0.1231
     14 O         144.9373  138.5129  155.5945 O.3     1  UNL1       -0.3812
     15 C         142.2108  139.0089  156.6185 C.3     1  UNL1        0.0340
     16 C         141.5541  140.2933  157.0296 C.3     1  UNL1        0.0185
     17 H         145.5490  139.2578  155.4856 H       1  UNL1        0.2107
     18 C         143.3226  137.5500  156.0235 C.ar    1  UNL1        0.0830
     19 C         143.0585  136.9288  154.6839 C.ar    1  UNL1        0.0171
     20 C         142.7543  135.4634  154.5836 C.ar    1  UNL1        0.0049
     21 C         142.7141  134.6192  155.8228 C.ar    1  UNL1        0.0430
     22 C         142.9782  135.2403  157.1623 C.ar    1  UNL1        0.1005
     23 N         143.2824  136.7057  157.2627 N.ar    1  UNL1       -0.2458
     24 C         142.4099  133.1537  155.7224 C.ar    1  UNL1        0.1123
     25 N         143.1278  132.0527  156.4450 N.ar    1  UNL1       -0.2367
     26 C         142.4959  130.7506  156.0510 C.ar    1  UNL1        0.1064
     27 C         141.3875  131.0469  155.0848 C.ar    1  UNL1        0.0575
     28 S         141.3343  132.5322  154.8817 S.2     1  UNL1       -0.0658
     29 C         141.2215  145.4213  163.2899 C.3     1  UNL1        0.1761
     30 O         138.7914  144.8314  164.9471 O.2     1  UNL1       -0.2701
     31 C         139.9956  143.9418  165.0386 C.2     1  UNL1        0.2462
     32 N         141.2106  144.2367  164.2100 N.am    1  UNL1       -0.2931
     33 H         142.0010  143.6528  164.2701 H       1  UNL1        0.1502
     34 C         139.9848  142.7571  165.9587 C.ar    1  UNL1        0.0533
     35 C         140.4638  142.9014  167.3728 C.ar    1  UNL1        0.0045
     36 C         140.4530  141.7168  168.2929 C.ar    1  UNL1        0.0001
     37 C         139.9631  140.3879  167.7989 C.ar    1  UNL1        0.0039
     38 C         139.4841  140.2436  166.3848 C.ar    1  UNL1        0.0716
     39 C         139.4949  141.4282  165.4647 C.ar    1  UNL1        0.0084
     40 C         138.9943  138.9147  165.8908 C.3     1  UNL1        0.4186
     41 F         138.5043  137.5858  165.3967 F       1  UNL1       -0.1659
     42 F         140.4113  138.4397  165.7633 F       1  UNL1       -0.1659
     43 F         137.5772  139.3897  166.0182 F       1  UNL1       -0.1659
@<TRIPOS>BOND
     1    30    31    2
     2    31    32   am
     3    32    29    1
     4    29     1    1
     5     1     2    2
     6     1     3   am
     7     3     4    1
     8     4     5    1
     9     5     6    1
    10     6     8    1
    11    10     8    1
    12    10    11    1
    13    11    12    1
    14    12    13    1
    15    13    14    1
    16    13    18    1
    17    18    19   ar
    18    19    20   ar
    19    20    21   ar
    20    21    24    1
    21    24    25   ar
    22    25    26   ar
    23    26    27   ar
    24    27    28   ar
    25    21    22   ar
    26    22    23   ar
    27    13    15    1
    28    15    16    1
    29     6     7    1
    30    31    34    1
    31    34    35   ar
    32    35    36   ar
    33    36    37   ar
    34    37    38   ar
    35    38    40    1
    36    40    41    1
    37    40    42    1
    38    40    43    1
    39    38    39   ar
    40     7     3    1
    41    39    34   ar
    42    16    10    1
    43    23    18   ar
    44    28    24   ar
    45    32    33    1
    46     8     9    1
    47    14    17    1
@<TRIPOS>MOLECULE
*****
 43 47 0 0 0
SMALL
GASTEIGER

@<TRIPOS>ATOM
      1 C         137.2642  141.6729  156.6501 C.2     1  UNL1        0.2458
      2 O         137.1809  140.5098  157.5936 O.2     1  UNL1       -0.2730
      3 N         138.2892  142.7456  156.8707 N.am    1  UNL1       -0.2767
      4 C         138.4906  143.9617  156.0158 C.3     1  UNL1        0.0949
      5 C         139.6186  144.7583  156.6016 C.3     1  UNL1        0.0390
      6 C         140.1143  144.0345  157.8184 C.3     1  UNL1        0.0758
      7 C         139.2927  142.7907  157.9846 C.3     1  UNL1        0.1091
      8 N         141.2349  144.4770  158.7120 N.3     1  UNL1       -0.2982
      9 H         141.4828  145.4242  158.4263 H       1  UNL1        0.1232
     10 C         141.0400  144.5101  160.1989 C.3     1  UNL1        0.0542
     11 C         140.2776  145.6370  160.8305 C.3     1  UNL1        0.0185
     12 C         140.0828  145.6701  162.3174 C.3     1  UNL1        0.0340
     13 C         140.6503  144.5763  163.1727 C.3     1  UNL1        0.1231
     14 O         140.0075  145.4258  164.2287 O.3     1  UNL1       -0.3812
     15 C         141.4126  143.4494  162.5411 C.3     1  UNL1        0.0340
     16 C         141.6075  143.4163  161.0542 C.3     1  UNL1        0.0185
     17 H         139.5867  146.1947  163.8133 H       1  UNL1        0.2107
     18 C         140.9945  143.7776  164.3948 C.ar    1  UNL1        0.0830
     19 C         142.4212  143.4052  164.6702 C.ar    1  UNL1        0.0171
     20 C         142.7653  142.6064  165.8924 C.ar    1  UNL1        0.0049
     21 C         141.6827  142.1802  166.8391 C.ar    1  UNL1        0.0430
     22 C         140.2561  142.5526  166.5637 C.ar    1  UNL1        0.1005
     23 N         139.9119  143.3513  165.3416 N.ar    1  UNL1       -0.2458
     24 C         142.0270  141.3814  168.0613 C.ar    1  UNL1        0.1123
     25 N         141.4290  140.0617  168.4492 N.ar    1  UNL1       -0.2367
     26 C         142.0620  139.6268  169.7377 C.ar    1  UNL1        0.1064
     27 C         143.0511  140.6778  170.1461 C.ar    1  UNL1        0.0575
     28 S         143.0295  141.7623  169.1100 S.2     1  UNL1       -0.0658
     29 C         136.3224  141.7633  155.4862 C.3     1  UNL1        0.1761
     30 O         134.9557  139.0935  155.5561 O.2     1  UNL1       -0.2701
     31 C         134.1582  140.3496  155.7465 C.2     1  UNL1        0.2462
     32 N         134.8415  141.6844  155.7116 N.am    1  UNL1       -0.2931
     33 H         134.3180  142.5088  155.8365 H       1  UNL1        0.1502
     34 C         132.6773  140.2708  155.9719 C.ar    1  UNL1        0.0533
     35 C         132.0927  139.1066  156.7155 C.ar    1  UNL1        0.0045
     36 C         130.6118  139.0279  156.9409 C.ar    1  UNL1        0.0001
     37 C         129.7156  140.1133  156.4227 C.ar    1  UNL1        0.0039
     38 C         130.3002  141.2775  155.6792 C.ar    1  UNL1        0.0716
     39 C         131.7811  141.3562  155.4538 C.ar    1  UNL1        0.0084
     40 C         129.4039  142.3629  155.1610 C.3     1  UNL1        0.4186
     41 F         128.5075  143.4483  154.6428 F       1  UNL1       -0.1659
     42 F         130.5599  142.9620  154.4164 F       1  UNL1       -0.1659
     43 F         128.2478  141.7637  155.9056 F       1  UNL1       -0.1659
@<TRIPOS>BOND
     1    30    31    2
     2    31    32   am
     3    32    29    1
     4    29     1    1
     5     1     2    2
     6     1     3   am
     7     3     4    1
     8     4     5    1
     9     5     6    1
    10     6     8    1
    11    10     8    1
    12    10    11    1
    13    11    12    1
    14    12    13    1
    15    13    14    1
    16    13    18    1
    17    18    19   ar
    18    19    20   ar
    19    20    21   ar
    20    21    24    1
    21    24    25   ar
    22    25    26   ar
    23    26    27   ar
    24    27    28   ar
    25    21    22   ar
    26    22    23   ar
    27    13    15    1
    28    15    16    1
    29     6     7    1
    30    31    34    1
    31    34    35   ar
    32    35    36   ar
    33    36    37   ar
    34    37    38   ar
    35    38    40    1
    36    40    41    1
    37    40    42    1
    38    40    43    1
    39    38    39   ar
    40     7     3    1
    41    39    34   ar
    42    16    10    1
    43    23    18   ar
    44    28    24   ar
    45    32    33    1
    46     8     9    1
    47    14    17    1
@<TRIPOS>MOLECULE
*****
 43 47 0 0 0
SMALL
GASTEIGER

@<TRIPOS>ATOM
      1 C         139.9618  144.4662  161.2696 C.2     1  UNL1        0.2458
      2 O         139.3346  145.8026  161.0038 O.2     1  UNL1       -0.2730
      3 N         140.0703  143.4559  160.1662 N.am    1  UNL1       -0.2767
      4 C         140.6693  142.0855  160.2813 C.3     1  UNL1        0.0949
      5 C         140.5680  141.4212  158.9403 C.3     1  UNL1        0.0390
      6 C         139.9062  142.3810  157.9964 C.3     1  UNL1        0.0758
      7 C         139.5987  143.6385  158.7540 C.3     1  UNL1        0.1091
      8 N         139.6050  142.1277  156.5490 N.3     1  UNL1       -0.2982
      9 H         140.1514  141.3119  156.2728 H       1  UNL1        0.1232
     10 C         138.1935  141.8723  156.1101 C.3     1  UNL1        0.0542
     11 C         137.7044  142.4186  154.8016 C.3     1  UNL1        0.0185
     12 C         136.2930  142.1631  154.3628 C.3     1  UNL1        0.0340
     13 C         135.3706  141.3614  155.2326 C.3     1  UNL1        0.1231
     14 O         134.4502  141.6660  154.0881 O.3     1  UNL1       -0.3812
     15 C         135.8597  140.8152  156.5412 C.3     1  UNL1        0.0340
     16 C         137.2711  141.0706  156.9799 C.3     1  UNL1        0.0185
     17 H         134.9218  142.1953  153.4260 H       1  UNL1        0.2107
     18 C         134.1286  140.6656  155.7049 C.ar    1  UNL1        0.0830
     19 C         132.7953  141.3406  155.5755 C.ar    1  UNL1        0.0171
     20 C         131.5533  140.6445  156.0477 C.ar    1  UNL1        0.0049
     21 C         131.6446  139.2736  156.6494 C.ar    1  UNL1        0.0430
     22 C         132.9778  138.5986  156.7788 C.ar    1  UNL1        0.1005
     23 N         134.2198  139.2945  156.3066 N.ar    1  UNL1       -0.2458
     24 C         130.4024  138.5776  157.1217 C.ar    1  UNL1        0.1123
     25 N         129.3217  138.0133  156.2479 N.ar    1  UNL1       -0.2367
     26 C         128.2744  137.4108  157.1368 C.ar    1  UNL1        0.1064
     27 C         128.7079  137.6026  158.5598 C.ar    1  UNL1        0.0575
     28 S         130.0232  138.3238  158.5505 S.2     1  UNL1       -0.0658
     29 C         140.4807  144.1403  162.6387 C.3     1  UNL1        0.1761
     30 O         141.8642  143.0532  165.0686 O.2     1  UNL1       -0.2701
     31 C         140.5262  142.5107  164.6617 C.2     1  UNL1        0.2462
     32 N         139.8345  143.0543  163.4468 N.am    1  UNL1       -0.2931
     33 H         138.9563  142.6982  163.1798 H       1  UNL1        0.1502
     34 C         139.8800  141.4247  165.4697 C.ar    1  UNL1        0.0533
     35 C         138.9114  140.4816  164.8198 C.ar    1  UNL1        0.0045
     36 C         138.2652  139.3955  165.6279 C.ar    1  UNL1        0.0001
     37 C         138.5875  139.2527  167.0858 C.ar    1  UNL1        0.0039
     38 C         139.5560  140.1958  167.7358 C.ar    1  UNL1        0.0716
     39 C         140.2023  141.2818  166.9277 C.ar    1  UNL1        0.0084
     40 C         139.8783  140.0530  169.1937 C.3     1  UNL1        0.4186
     41 F         140.2005  139.9101  170.6518 F       1  UNL1       -0.1659
     42 F         141.3429  140.1140  168.8760 F       1  UNL1       -0.1659
     43 F         138.4136  139.9919  169.5115 F       1  UNL1       -0.1659
@<TRIPOS>BOND
     1    30    31    2
     2    31    32   am
     3    32    29    1
     4    29     1    1
     5     1     2    2
     6     1     3   am
     7     3     4    1
     8     4     5    1
     9     5     6    1
    10     6     8    1
    11    10     8    1
    12    10    11    1
    13    11    12    1
    14    12    13    1
    15    13    14    1
    16    13    18    1
    17    18    19   ar
    18    19    20   ar
    19    20    21   ar
    20    21    24    1
    21    24    25   ar
    22    25    26   ar
    23    26    27   ar
    24    27    28   ar
    25    21    22   ar
    26    22    23   ar
    27    13    15    1
    28    15    16    1
    29     6     7    1
    30    31    34    1
    31    34    35   ar
    32    35    36   ar
    33    36    37   ar
    34    37    38   ar
    35    38    40    1
    36    40    41    1
    37    40    42    1
    38    40    43    1
    39    38    39   ar
    40     7     3    1
    41    39    34   ar
    42    16    10    1
    43    23    18   ar
    44    28    24   ar
    45    32    33    1
    46     8     9    1
    47    14    17    1
@<TRIPOS>MOLECULE
*****
 43 47 0 0 0
SMALL
GASTEIGER

@<TRIPOS>ATOM
      1 C         140.7834  144.3749  161.6763 C.2     1  UNL1        0.2458
      2 O         139.4705  144.9277  161.2065 O.2     1  UNL1       -0.2730
      3 N         141.6297  143.5584  160.7450 N.am    1  UNL1       -0.2767
      4 C         142.9584  142.9434  161.0715 C.3     1  UNL1        0.0949
      5 C         143.4457  142.2185  159.8521 C.3     1  UNL1        0.0390
      6 C         142.4183  142.3854  158.7720 C.3     1  UNL1        0.0758
      7 C         141.2960  143.2135  159.3239 C.3     1  UNL1        0.1091
      8 N         142.4990  141.8230  157.3838 N.3     1  UNL1       -0.2982
      9 H         143.4737  141.8970  157.0924 H       1  UNL1        0.1232
     10 C         142.0749  140.4083  157.1219 C.3     1  UNL1        0.0542
     11 C         140.6207  140.0422  157.1588 C.3     1  UNL1        0.0185
     12 C         140.1966  138.6275  156.8969 C.3     1  UNL1        0.0340
     13 C         141.2267  137.5788  156.5980 C.3     1  UNL1        0.1231
     14 O         139.9798  136.7484  156.5220 O.3     1  UNL1       -0.3812
     15 C         142.6808  137.9449  156.5610 C.3     1  UNL1        0.0340
     16 C         143.1049  139.3596  156.8230 C.3     1  UNL1        0.0185
     17 H         139.2074  137.3079  156.6988 H       1  UNL1        0.2107
     18 C         141.8236  136.2417  156.2727 C.ar    1  UNL1        0.0830
     19 C         141.2304  135.4010  155.1813 C.ar    1  UNL1        0.0171
     20 C         141.8275  134.0638  154.8561 C.ar    1  UNL1        0.0049
     21 C         143.0177  133.5676  155.6223 C.ar    1  UNL1        0.0430
     22 C         143.6108  134.4083  156.7137 C.ar    1  UNL1        0.1005
     23 N         143.0138  135.7454  157.0389 N.ar    1  UNL1       -0.2458
     24 C         143.6147  132.2304  155.2970 C.ar    1  UNL1        0.1123
     25 N         143.3367  131.4162  154.0683 N.ar    1  UNL1       -0.2367
     26 C         144.1446  130.1554  154.1552 C.ar    1  UNL1        0.1064
     27 C         144.9219  130.1904  155.4376 C.ar    1  UNL1        0.0575
     28 S         144.5944  131.4728  156.1433 S.2     1  UNL1       -0.0658
     29 C         141.2500  144.6385  163.0772 C.3     1  UNL1        0.1761
     30 O         139.0782  144.7271  165.1449 O.2     1  UNL1       -0.2701
     31 C         140.0715  143.6032  165.1482 C.2     1  UNL1        0.2462
     32 N         141.1574  143.5588  164.1144 N.am    1  UNL1       -0.2931
     33 H         141.8093  142.8211  164.1166 H       1  UNL1        0.1502
     34 C         139.9789  142.5234  166.1854 C.ar    1  UNL1        0.0533
     35 C         140.5155  142.7614  167.5657 C.ar    1  UNL1        0.0045
     36 C         140.4229  141.6817  168.6029 C.ar    1  UNL1        0.0001
     37 C         139.7938  140.3640  168.2597 C.ar    1  UNL1        0.0039
     38 C         139.2572  140.1260  166.8793 C.ar    1  UNL1        0.0716
     39 C         139.3498  141.2057  165.8421 C.ar    1  UNL1        0.0084
     40 C         138.6281  138.8083  166.5361 C.3     1  UNL1        0.4186
     41 F         137.9989  137.4905  166.1928 F       1  UNL1       -0.1659
     42 F         137.7247  138.9293  167.7274 F       1  UNL1       -0.1659
     43 F         139.5315  138.6873  165.3448 F       1  UNL1       -0.1659
@<TRIPOS>BOND
     1    30    31    2
     2    31    32   am
     3    32    29    1
     4    29     1    1
     5     1     2    2
     6     1     3   am
     7     3     4    1
     8     4     5    1
     9     5     6    1
    10     6     8    1
    11    10     8    1
    12    10    11    1
    13    11    12    1
    14    12    13    1
    15    13    14    1
    16    13    18    1
    17    18    19   ar
    18    19    20   ar
    19    20    21   ar
    20    21    24    1
    21    24    25   ar
    22    25    26   ar
    23    26    27   ar
    24    27    28   ar
    25    21    22   ar
    26    22    23   ar
    27    13    15    1
    28    15    16    1
    29     6     7    1
    30    31    34    1
    31    34    35   ar
    32    35    36   ar
    33    36    37   ar
    34    37    38   ar
    35    38    40    1
    36    40    41    1
    37    40    42    1
    38    40    43    1
    39    38    39   ar
    40     7     3    1
    41    39    34   ar
    42    16    10    1
    43    23    18   ar
    44    28    24   ar
    45    32    33    1
    46     8     9    1
    47    14    17    1
@<TRIPOS>MOLECULE
*****
 43 47 0 0 0
SMALL
GASTEIGER

@<TRIPOS>ATOM
      1 C         140.3895  145.4773  161.5344 C.2     1  UNL1        0.2458
      2 O         139.2077  146.3997  161.4850 O.2     1  UNL1       -0.2730
      3 N         140.7551  144.6617  160.3297 N.am    1  UNL1       -0.2767
      4 C         141.9033  143.7015  160.2305 C.3     1  UNL1        0.0949
      5 C         141.8946  143.1095  158.8523 C.3     1  UNL1        0.0390
      6 C         140.7411  143.7038  158.0998 C.3     1  UNL1        0.0758
      7 C         140.0369  144.6631  159.0129 C.3     1  UNL1        0.1091
      8 N         140.3589  143.3933  156.6829 N.3     1  UNL1       -0.2982
      9 H         141.1798  142.9804  156.2403 H       1  UNL1        0.1232
     10 C         139.2068  142.4750  156.4009 C.3     1  UNL1        0.0542
     11 C         139.4572  141.1122  155.8265 C.3     1  UNL1        0.0185
     12 C         138.3051  140.1940  155.5445 C.3     1  UNL1        0.0340
     13 C         136.9027  140.6386  155.8369 C.3     1  UNL1        0.1231
     14 O         136.6336  139.2644  155.2992 O.3     1  UNL1       -0.3812
     15 C         136.6523  142.0014  156.4113 C.3     1  UNL1        0.0340
     16 C         137.8044  142.9196  156.6933 C.3     1  UNL1        0.0185
     17 H         137.4727  138.8407  155.0601 H       1  UNL1        0.2107
     18 C         135.4068  140.6059  155.9425 C.ar    1  UNL1        0.0830
     19 C         134.5686  141.3700  154.9609 C.ar    1  UNL1        0.0171
     20 C         133.0727  141.3372  155.0666 C.ar    1  UNL1        0.0049
     21 C         132.4150  140.5403  156.1539 C.ar    1  UNL1        0.0430
     22 C         133.2531  139.7762  157.1356 C.ar    1  UNL1        0.1005
     23 N         134.7490  139.8090  157.0299 N.ar    1  UNL1       -0.2458
     24 C         130.9190  140.5075  156.2596 C.ar    1  UNL1        0.1123
     25 N         129.9589  141.3082  155.4307 N.ar    1  UNL1       -0.2367
     26 C         128.5671  140.9639  155.8714 C.ar    1  UNL1        0.1064
     27 C         128.6670  139.9505  156.9727 C.ar    1  UNL1        0.0575
     28 S         130.1206  139.6684  157.2127 S.2     1  UNL1       -0.0658
     29 C         141.2056  145.3705  162.7884 C.3     1  UNL1        0.1761
     30 O         139.1372  145.1437  164.9496 O.2     1  UNL1       -0.2701
     31 C         140.0971  144.0165  164.7088 C.2     1  UNL1        0.2462
     32 N         141.1313  144.1299  163.6283 N.am    1  UNL1       -0.2931
     33 H         141.7613  143.3900  163.4703 H       1  UNL1        0.1502
     34 C         140.0229  142.7758  165.5487 C.ar    1  UNL1        0.0533
     35 C         139.7387  141.4508  164.9057 C.ar    1  UNL1        0.0045
     36 C         139.6645  140.2101  165.7456 C.ar    1  UNL1        0.0001
     37 C         139.8745  140.2946  167.2284 C.ar    1  UNL1        0.0039
     38 C         140.1588  141.6196  167.8713 C.ar    1  UNL1        0.0716
     39 C         140.2330  142.8603  167.0315 C.ar    1  UNL1        0.0084
     40 C         140.3688  141.7040  169.3541 C.3     1  UNL1        0.4186
     41 F         140.5788  141.7884  170.8370 F       1  UNL1       -0.1659
     42 F         141.2934  142.8686  169.1569 F       1  UNL1       -0.1659
     43 F         139.4442  140.5395  169.5514 F       1  UNL1       -0.1659
@<TRIPOS>BOND
     1    30    31    2
     2    31    32   am
     3    32    29    1
     4    29     1    1
     5     1     2    2
     6     1     3   am
     7     3     4    1
     8     4     5    1
     9     5     6    1
    10     6     8    1
    11    10     8    1
    12    10    11    1
    13    11    12    1
    14    12    13    1
    15    13    14    1
    16    13    18    1
    17    18    19   ar
    18    19    20   ar
    19    20    21   ar
    20    21    24    1
    21    24    25   ar
    22    25    26   ar
    23    26    27   ar
    24    27    28   ar
    25    21    22   ar
    26    22    23   ar
    27    13    15    1
    28    15    16    1
    29     6     7    1
    30    31    34    1
    31    34    35   ar
    32    35    36   ar
    33    36    37   ar
    34    37    38   ar
    35    38    40    1
    36    40    41    1
    37    40    42    1
    38    40    43    1
    39    38    39   ar
    40     7     3    1
    41    39    34   ar
    42    16    10    1
    43    23    18   ar
    44    28    24   ar
    45    32    33    1
    46     8     9    1
    47    14    17    1
@<TRIPOS>MOLECULE
*****
 43 47 0 0 0
SMALL
GASTEIGER

@<TRIPOS>ATOM
      1 C         140.0949  139.1317  156.2547 C.2     1  UNL1        0.2458
      2 O         138.7276  138.5247  156.3641 O.2     1  UNL1       -0.2730
      3 N         140.3687  140.4771  156.8591 N.am    1  UNL1       -0.2767
      4 C         141.6791  141.2066  156.8298 C.3     1  UNL1        0.0949
      5 C         141.5004  142.5094  157.5514 C.3     1  UNL1        0.0390
      6 C         140.0796  142.5851  158.0266 C.3     1  UNL1        0.0758
      7 C         139.3802  141.3291  157.5987 C.3     1  UNL1        0.1091
      8 N         139.4661  143.7179  158.7948 N.3     1  UNL1       -0.2982
      9 H         138.4596  143.5527  158.8095 H       1  UNL1        0.1232
     10 C         139.8834  143.9758  160.2124 C.3     1  UNL1        0.0542
     11 C         140.0868  145.3830  160.6901 C.3     1  UNL1        0.0185
     12 C         140.5041  145.6408  162.1076 C.3     1  UNL1        0.0340
     13 C         140.7179  144.4913  163.0474 C.3     1  UNL1        0.1231
     14 O         141.0337  145.6377  163.9618 O.3     1  UNL1       -0.3812
     15 C         140.5144  143.0841  162.5696 C.3     1  UNL1        0.0340
     16 C         140.0972  142.8263  161.1521 C.3     1  UNL1        0.0185
     17 H         140.9354  146.4731  163.4788 H       1  UNL1        0.2107
     18 C         141.0414  143.7401  164.3047 C.ar    1  UNL1        0.0830
     19 C         139.9535  143.4138  165.2845 C.ar    1  UNL1        0.0171
     20 C         140.2771  142.6625  166.5419 C.ar    1  UNL1        0.0049
     21 C         141.6886  142.2376  166.8194 C.ar    1  UNL1        0.0430
     22 C         142.7765  142.5639  165.8396 C.ar    1  UNL1        0.1005
     23 N         142.4529  143.3152  164.5823 N.ar    1  UNL1       -0.2458
     24 C         142.0122  141.4863  168.0768 C.ar    1  UNL1        0.1123
     25 N         141.3579  140.2183  168.5393 N.ar    1  UNL1       -0.2367
     26 C         141.9881  139.8195  169.8407 C.ar    1  UNL1        0.1064
     27 C         143.0319  140.8410  170.1826 C.ar    1  UNL1        0.0575
     28 S         143.0468  141.8712  169.0924 S.2     1  UNL1       -0.0658
     29 C         141.1883  138.3935  155.5410 C.3     1  UNL1        0.1761
     30 O         143.7066  137.0107  156.4047 O.2     1  UNL1       -0.2701
     31 C         142.4999  136.2040  156.0264 C.2     1  UNL1        0.2462
     32 N         141.2408  136.8954  155.5946 N.am    1  UNL1       -0.2931
     33 H         140.4489  136.3659  155.3463 H       1  UNL1        0.1502
     34 C         142.5523  134.7059  156.0799 C.ar    1  UNL1        0.0533
     35 C         141.5256  133.8929  155.3486 C.ar    1  UNL1        0.0045
     36 C         141.5780  132.3947  155.4021 C.ar    1  UNL1        0.0001
     37 C         142.6572  131.7096  156.1869 C.ar    1  UNL1        0.0039
     38 C         143.6839  132.5226  156.9182 C.ar    1  UNL1        0.0716
     39 C         143.6315  134.0207  156.8647 C.ar    1  UNL1        0.0084
     40 C         144.7631  131.8374  157.7030 C.3     1  UNL1        0.4186
     41 F         145.8423  131.1522  158.4878 F       1  UNL1       -0.1659
     42 F         144.4793  130.5569  156.9752 F       1  UNL1       -0.1659
     43 F         145.0469  133.1179  158.4307 F       1  UNL1       -0.1659
@<TRIPOS>BOND
     1    30    31    2
     2    31    32   am
     3    32    29    1
     4    29     1    1
     5     1     2    2
     6     1     3   am
     7     3     4    1
     8     4     5    1
     9     5     6    1
    10     6     8    1
    11    10     8    1
    12    10    11    1
    13    11    12    1
    14    12    13    1
    15    13    14    1
    16    13    18    1
    17    18    19   ar
    18    19    20   ar
    19    20    21   ar
    20    21    24    1
    21    24    25   ar
    22    25    26   ar
    23    26    27   ar
    24    27    28   ar
    25    21    22   ar
    26    22    23   ar
    27    13    15    1
    28    15    16    1
    29     6     7    1
    30    31    34    1
    31    34    35   ar
    32    35    36   ar
    33    36    37   ar
    34    37    38   ar
    35    38    40    1
    36    40    41    1
    37    40    42    1
    38    40    43    1
    39    38    39   ar
    40     7     3    1
    41    39    34   ar
    42    16    10    1
    43    23    18   ar
    44    28    24   ar
    45    32    33    1
    46     8     9    1
    47    14    17    1
