@<TRIPOS>MOLECULE
*****
 27 31 0 0 0
SMALL
GASTEIGER

@<TRIPOS>ATOM
      1 CL        144.6841  143.2541  165.4479 Cl      1  UNL1       -0.0823
      2 C         143.5006  142.5364  166.0260 C.ar    1  UNL1        0.0575
      3 C         142.5681  141.7815  165.1258 C.ar    1  UNL1        0.0129
      4 C         141.3846  141.0639  165.7040 C.ar    1  UNL1        0.0181
      5 C         141.1335  141.1012  167.1823 C.ar    1  UNL1        0.0623
      6 C         142.0660  141.8562  168.0825 C.ar    1  UNL1       -0.0047
      7 C         143.2496  142.5738  167.5044 C.ar    1  UNL1        0.0086
      8 C         141.8150  141.8935  169.5610 C.3     1  UNL1        0.0358
      9 C         140.6315  141.1759  170.1391 C.3     1  UNL1        0.0709
     10 C         139.6990  140.4209  169.2388 C.ar    1  UNL1        0.1471
     11 N         138.4595  139.6239  169.5189 N.ar    1  UNL1       -0.1333
     12 N         137.9445  139.0939  168.2135 N.ar    1  UNL1       -0.1333
     13 C         138.8656  139.5634  167.1268 C.ar    1  UNL1        0.1464
     14 N         139.9500  140.3836  167.7605 N.ar    1  UNL1       -0.2810
     15 C         138.7269  139.2652  165.6633 C.3     1  UNL1        0.0594
     16 C         138.1491  140.2959  164.7394 C.3     1  UNL1        0.0112
     17 C         138.0103  139.9978  163.2758 C.3     1  UNL1        0.0440
     18 C         138.4493  138.6688  162.7363 C.3     1  UNL1        0.1676
     19 C         139.0271  137.6381  163.6602 C.3     1  UNL1        0.0440
     20 C         139.1659  137.9362  165.1237 C.3     1  UNL1        0.0112
     21 O         138.3105  138.3706  161.2728 O.3     1  UNL1       -0.4640
     22 C         138.7323  139.3899  160.2564 C.ar    1  UNL1        0.2247
     23 C         140.1573  139.8558  160.2082 C.ar    1  UNL1        0.0577
     24 C         140.5791  140.8751  159.1918 C.ar    1  UNL1        0.0064
     25 C         139.5760  141.4285  158.2236 C.ar    1  UNL1        0.0209
     26 C         138.1510  140.9626  158.2718 C.ar    1  UNL1        0.1021
     27 N         137.7292  139.9433  159.2882 N.ar    1  UNL1       -0.2101
@<TRIPOS>BOND
     1     1     2    1
     2     2     3   ar
     3     3     4   ar
     4     4     5   ar
     5     5     6   ar
     6     6     7   ar
     7     6     8    1
     8     8     9    1
     9     9    10    1
    10    10    11   ar
    11    11    12   ar
    12    12    13   ar
    13    15    13    1
    14    15    16    1
    15    16    17    1
    16    17    18    1
    17    18    21    1
    18    21    22    1
    19    22    23   ar
    20    23    24   ar
    21    24    25   ar
    22    25    26   ar
    23    26    27   ar
    24    18    19    1
    25    19    20    1
    26    13    14   ar
    27     7     2   ar
    28    14    10   ar
    29    14     5    1
    30    20    15    1
    31    27    22   ar
@<TRIPOS>MOLECULE
*****
 27 31 0 0 0
SMALL
GASTEIGER

@<TRIPOS>ATOM
      1 CL        138.8010  144.7873  164.2984 Cl      1  UNL1       -0.0823
      2 C         139.5867  143.7198  165.0007 C.ar    1  UNL1        0.0575
      3 C         140.2349  142.6226  164.2097 C.ar    1  UNL1        0.0129
      4 C         141.0205  141.5551  164.9120 C.ar    1  UNL1        0.0181
      5 C         141.1579  141.5848  166.4053 C.ar    1  UNL1        0.0623
      6 C         140.5097  142.6821  167.1964 C.ar    1  UNL1       -0.0047
      7 C         139.7241  143.7496  166.4941 C.ar    1  UNL1        0.0086
      8 C         140.6471  142.7119  168.6898 C.3     1  UNL1        0.0358
      9 C         141.4327  141.6444  169.3922 C.3     1  UNL1        0.0709
     10 C         142.0809  140.5471  168.6010 C.ar    1  UNL1        0.1471
     11 N         142.9107  139.3677  169.0139 N.ar    1  UNL1       -0.1333
     12 N         143.2861  138.6090  167.7755 N.ar    1  UNL1       -0.1333
     13 C         142.6884  139.3195  166.5975 C.ar    1  UNL1        0.1464
     14 N         141.9435  140.5174  167.1077 N.ar    1  UNL1       -0.2810
     15 C         142.8135  138.9050  165.1614 C.3     1  UNL1        0.0594
     16 C         143.9995  139.3440  164.3546 C.3     1  UNL1        0.0112
     17 C         144.1247  138.9295  162.9184 C.3     1  UNL1        0.0440
     18 C         143.0638  138.0760  162.2890 C.3     1  UNL1        0.1676
     19 C         141.8779  137.6370  163.0957 C.3     1  UNL1        0.0440
     20 C         141.7527  138.0515  164.5318 C.3     1  UNL1        0.0112
     21 O         143.1890  137.6615  160.8529 O.3     1  UNL1       -0.4640
     22 C         142.7268  138.5830  159.7633 C.ar    1  UNL1        0.2247
     23 C         141.2681  138.9008  159.6183 C.ar    1  UNL1        0.0577
     24 C         140.8059  139.8224  158.5287 C.ar    1  UNL1        0.0064
     25 C         141.8025  140.4261  157.5841 C.ar    1  UNL1        0.0209
     26 C         143.2612  140.1083  157.7291 C.ar    1  UNL1        0.1021
     27 N         143.7234  139.1867  158.8187 N.ar    1  UNL1       -0.2101
@<TRIPOS>BOND
     1     1     2    1
     2     2     3   ar
     3     3     4   ar
     4     4     5   ar
     5     5     6   ar
     6     6     7   ar
     7     6     8    1
     8     8     9    1
     9     9    10    1
    10    10    11   ar
    11    11    12   ar
    12    12    13   ar
    13    15    13    1
    14    15    16    1
    15    16    17    1
    16    17    18    1
    17    18    21    1
    18    21    22    1
    19    22    23   ar
    20    23    24   ar
    21    24    25   ar
    22    25    26   ar
    23    26    27   ar
    24    18    19    1
    25    19    20    1
    26    13    14   ar
    27     7     2   ar
    28    14    10   ar
    29    14     5    1
    30    20    15    1
    31    27    22   ar
@<TRIPOS>MOLECULE
*****
 27 31 0 0 0
SMALL
GASTEIGER

@<TRIPOS>ATOM
      1 CL        144.2455  143.5423  164.4589 Cl      1  UNL1       -0.0823
      2 C         143.0898  142.7002  164.9116 C.ar    1  UNL1        0.0575
      3 C         142.1094  142.1701  163.9077 C.ar    1  UNL1        0.0129
      4 C         140.9536  141.3279  164.3604 C.ar    1  UNL1        0.0181
      5 C         140.7782  141.0158  165.8171 C.ar    1  UNL1        0.0623
      6 C         141.7586  141.5459  166.8210 C.ar    1  UNL1       -0.0047
      7 C         142.9144  142.3881  166.3682 C.ar    1  UNL1        0.0086
      8 C         141.5832  141.2338  168.2777 C.3     1  UNL1        0.0358
      9 C         140.4274  140.3917  168.7304 C.3     1  UNL1        0.0709
     10 C         139.4470  139.8616  167.7264 C.ar    1  UNL1        0.1471
     11 N         138.2199  139.0117  167.8739 N.ar    1  UNL1       -0.1333
     12 N         137.6369  138.7984  166.5084 N.ar    1  UNL1       -0.1333
     13 C         138.5037  139.5166  165.5170 C.ar    1  UNL1        0.1464
     14 N         139.6225  140.1737  166.2698 N.ar    1  UNL1       -0.2810
     15 C         138.2895  139.5686  164.0333 C.3     1  UNL1        0.0594
     16 C         137.7292  140.8072  163.3994 C.3     1  UNL1        0.0112
     17 C         137.5148  140.8593  161.9157 C.3     1  UNL1        0.0440
     18 C         137.8609  139.6727  161.0659 C.3     1  UNL1        0.1676
     19 C         138.4212  138.4341  161.6997 C.3     1  UNL1        0.0440
     20 C         138.6355  138.3820  163.1834 C.3     1  UNL1        0.0112
     21 O         137.6466  139.7247  159.5822 O.3     1  UNL1       -0.4640
     22 C         138.5122  140.6046  158.7298 C.ar    1  UNL1        0.2247
     23 C         139.8071  140.0803  158.1836 C.ar    1  UNL1        0.0577
     24 C         140.6726  140.9603  157.3313 C.ar    1  UNL1        0.0064
     25 C         140.2433  142.3645  157.0250 C.ar    1  UNL1        0.0209
     26 C         138.9484  142.8888  157.5712 C.ar    1  UNL1        0.1021
     27 N         138.0829  142.0088  158.4235 N.ar    1  UNL1       -0.2101
@<TRIPOS>BOND
     1     1     2    1
     2     2     3   ar
     3     3     4   ar
     4     4     5   ar
     5     5     6   ar
     6     6     7   ar
     7     6     8    1
     8     8     9    1
     9     9    10    1
    10    10    11   ar
    11    11    12   ar
    12    12    13   ar
    13    15    13    1
    14    15    16    1
    15    16    17    1
    16    17    18    1
    17    18    21    1
    18    21    22    1
    19    22    23   ar
    20    23    24   ar
    21    24    25   ar
    22    25    26   ar
    23    26    27   ar
    24    18    19    1
    25    19    20    1
    26    13    14   ar
    27     7     2   ar
    28    14    10   ar
    29    14     5    1
    30    20    15    1
    31    27    22   ar
@<TRIPOS>MOLECULE
*****
 27 31 0 0 0
SMALL
GASTEIGER

@<TRIPOS>ATOM
      1 CL        144.8542  143.9039  165.7508 Cl      1  UNL1       -0.0823
      2 C         143.6122  143.0765  165.9024 C.ar    1  UNL1        0.0575
      3 C         142.6103  143.0165  164.7877 C.ar    1  UNL1        0.0129
      4 C         141.3684  142.1891  164.9394 C.ar    1  UNL1        0.0181
      5 C         141.1283  141.4218  166.2057 C.ar    1  UNL1        0.0623
      6 C         142.1302  141.4818  167.3203 C.ar    1  UNL1       -0.0047
      7 C         143.3722  142.3092  167.1687 C.ar    1  UNL1        0.0086
      8 C         141.8902  140.7145  168.5867 C.3     1  UNL1        0.0358
      9 C         140.6483  139.8871  168.7384 C.3     1  UNL1        0.0709
     10 C         139.6463  139.8271  167.6236 C.ar    1  UNL1        0.1471
     11 N         138.3401  139.1027  167.4862 N.ar    1  UNL1       -0.1333
     12 N         137.7728  139.4223  166.1349 N.ar    1  UNL1       -0.1333
     13 C         138.7284  140.3442  165.4372 C.ar    1  UNL1        0.1464
     14 N         139.8864  140.5944  166.3573 N.ar    1  UNL1       -0.2810
     15 C         138.5564  140.9156  164.0610 C.3     1  UNL1        0.0594
     16 C         137.9159  142.2601  163.8819 C.3     1  UNL1        0.0112
     17 C         137.7438  142.8317  162.5058 C.3     1  UNL1        0.0440
     18 C         138.2123  142.0587  161.3087 C.3     1  UNL1        0.1676
     19 C         138.8528  140.7142  161.4878 C.3     1  UNL1        0.0440
     20 C         139.0249  140.1427  162.8639 C.3     1  UNL1        0.0112
     21 O         138.0403  142.6301  159.9325 O.3     1  UNL1       -0.4640
     22 C         139.2098  143.2489  159.2258 C.ar    1  UNL1        0.2247
     23 C         140.3597  143.7977  160.0173 C.ar    1  UNL1        0.0577
     24 C         141.5292  144.4164  159.3106 C.ar    1  UNL1        0.0064
     25 C         141.5489  144.4864  157.8124 C.ar    1  UNL1        0.0209
     26 C         140.3989  143.9375  157.0209 C.ar    1  UNL1        0.1021
     27 N         139.2295  143.3188  157.7276 N.ar    1  UNL1       -0.2101
@<TRIPOS>BOND
     1     1     2    1
     2     2     3   ar
     3     3     4   ar
     4     4     5   ar
     5     5     6   ar
     6     6     7   ar
     7     6     8    1
     8     8     9    1
     9     9    10    1
    10    10    11   ar
    11    11    12   ar
    12    12    13   ar
    13    15    13    1
    14    15    16    1
    15    16    17    1
    16    17    18    1
    17    18    21    1
    18    21    22    1
    19    22    23   ar
    20    23    24   ar
    21    24    25   ar
    22    25    26   ar
    23    26    27   ar
    24    18    19    1
    25    19    20    1
    26    13    14   ar
    27     7     2   ar
    28    14    10   ar
    29    14     5    1
    30    20    15    1
    31    27    22   ar
@<TRIPOS>MOLECULE
*****
 27 31 0 0 0
SMALL
GASTEIGER

@<TRIPOS>ATOM
      1 CL        143.7825  145.2461  163.1785 Cl      1  UNL1       -0.0823
      2 C         143.0527  144.0164  162.7256 C.ar    1  UNL1        0.0575
      3 C         142.2900  143.1889  163.7173 C.ar    1  UNL1        0.0129
      4 C         141.5602  141.9592  163.2644 C.ar    1  UNL1        0.0181
      5 C         141.5931  141.5569  161.8198 C.ar    1  UNL1        0.0623
      6 C         142.3558  142.3843  160.8281 C.ar    1  UNL1       -0.0047
      7 C         143.0855  143.6141  161.2810 C.ar    1  UNL1        0.0086
      8 C         142.3887  141.9821  159.3833 C.3     1  UNL1        0.0358
      9 C         141.6589  140.7523  158.9304 C.3     1  UNL1        0.0709
     10 C         140.8962  139.9249  159.9222 C.ar    1  UNL1        0.1471
     11 N         140.0869  138.6710  159.7716 N.ar    1  UNL1       -0.1333
     12 N         139.5538  138.2983  161.1233 N.ar    1  UNL1       -0.1333
     13 C         140.0336  139.3218  162.1092 C.ar    1  UNL1        0.1464
     14 N         140.8633  140.3271  161.3669 N.ar    1  UNL1       -0.2810
     15 C         139.7361  139.3374  163.5793 C.3     1  UNL1        0.0594
     16 C         138.4329  139.8907  164.0749 C.3     1  UNL1        0.0112
     17 C         138.1353  139.9063  165.5450 C.3     1  UNL1        0.0440
     18 C         139.1409  139.3686  166.5195 C.3     1  UNL1        0.1676
     19 C         140.4441  138.8154  166.0239 C.3     1  UNL1        0.0440
     20 C         140.7417  138.7998  164.5538 C.3     1  UNL1        0.0112
     21 O         138.8434  139.3842  167.9896 O.3     1  UNL1       -0.4640
     22 C         139.6478  140.2552  168.9084 C.ar    1  UNL1        0.2247
     23 C         140.1452  141.5883  168.4337 C.ar    1  UNL1        0.0577
     24 C         140.9496  142.4593  169.3525 C.ar    1  UNL1        0.0064
     25 C         141.2568  141.9972  170.7460 C.ar    1  UNL1        0.0209
     26 C         140.7594  140.6641  171.2208 C.ar    1  UNL1        0.1021
     27 N         139.9550  139.7931  170.3020 N.ar    1  UNL1       -0.2101
@<TRIPOS>BOND
     1     1     2    1
     2     2     3   ar
     3     3     4   ar
     4     4     5   ar
     5     5     6   ar
     6     6     7   ar
     7     6     8    1
     8     8     9    1
     9     9    10    1
    10    10    11   ar
    11    11    12   ar
    12    12    13   ar
    13    15    13    1
    14    15    16    1
    15    16    17    1
    16    17    18    1
    17    18    21    1
    18    21    22    1
    19    22    23   ar
    20    23    24   ar
    21    24    25   ar
    22    25    26   ar
    23    26    27   ar
    24    18    19    1
    25    19    20    1
    26    13    14   ar
    27     7     2   ar
    28    14    10   ar
    29    14     5    1
    30    20    15    1
    31    27    22   ar
@<TRIPOS>MOLECULE
*****
 27 31 0 0 0
SMALL
GASTEIGER

@<TRIPOS>ATOM
      1 CL        139.8788  146.1289  162.0641 Cl      1  UNL1       -0.0823
      2 C         139.8167  144.6355  161.9389 C.ar    1  UNL1        0.0575
      3 C         139.8264  143.7786  163.1699 C.ar    1  UNL1        0.0129
      4 C         139.7643  142.2851  163.0447 C.ar    1  UNL1        0.0181
      5 C         139.6924  141.6485  161.6885 C.ar    1  UNL1        0.0623
      6 C         139.6826  142.5054  160.4574 C.ar    1  UNL1       -0.0047
      7 C         139.7448  143.9989  160.5826 C.ar    1  UNL1        0.0086
      8 C         139.6108  141.8688  159.1010 C.3     1  UNL1        0.0358
      9 C         139.5486  140.3753  158.9758 C.3     1  UNL1        0.0709
     10 C         139.5584  139.5185  160.2070 C.ar    1  UNL1        0.1471
     11 N         139.5074  138.0312  160.3951 N.ar    1  UNL1       -0.1333
     12 N         139.5478  137.7486  161.8677 N.ar    1  UNL1       -0.1333
     13 C         139.6237  139.0612  162.5896 C.ar    1  UNL1        0.1464
     14 N         139.6303  140.1550  161.5633 N.ar    1  UNL1       -0.2810
     15 C         139.6827  139.2473  164.0769 C.3     1  UNL1        0.0594
     16 C         141.0102  139.3460  164.7682 C.3     1  UNL1        0.0112
     17 C         141.0694  139.5321  166.2555 C.3     1  UNL1        0.0440
     18 C         139.8009  139.6196  167.0514 C.3     1  UNL1        0.1676
     19 C         138.4734  139.5210  166.3600 C.3     1  UNL1        0.0440
     20 C         138.4143  139.3348  164.8728 C.3     1  UNL1        0.0112
     21 O         139.8599  139.8058  168.5386 O.3     1  UNL1       -0.4640
     22 C         140.7532  140.8568  169.1280 C.ar    1  UNL1        0.2247
     23 C         140.2536  142.2621  169.2878 C.ar    1  UNL1        0.0577
     24 C         141.1468  143.3132  169.8773 C.ar    1  UNL1        0.0064
     25 C         142.5396  142.9590  170.3069 C.ar    1  UNL1        0.0209
     26 C         143.0392  141.5537  170.1470 C.ar    1  UNL1        0.1021
     27 N         142.1460  140.5026  169.5576 N.ar    1  UNL1       -0.2101
@<TRIPOS>BOND
     1     1     2    1
     2     2     3   ar
     3     3     4   ar
     4     4     5   ar
     5     5     6   ar
     6     6     7   ar
     7     6     8    1
     8     8     9    1
     9     9    10    1
    10    10    11   ar
    11    11    12   ar
    12    12    13   ar
    13    15    13    1
    14    15    16    1
    15    16    17    1
    16    17    18    1
    17    18    21    1
    18    21    22    1
    19    22    23   ar
    20    23    24   ar
    21    24    25   ar
    22    25    26   ar
    23    26    27   ar
    24    18    19    1
    25    19    20    1
    26    13    14   ar
    27     7     2   ar
    28    14    10   ar
    29    14     5    1
    30    20    15    1
    31    27    22   ar
@<TRIPOS>MOLECULE
*****
 27 31 0 0 0
SMALL
GASTEIGER

@<TRIPOS>ATOM
      1 CL        143.9983  144.8734  163.0139 Cl      1  UNL1       -0.0823
      2 C         143.1142  143.6750  163.1930 C.ar    1  UNL1        0.0575
      3 C         143.1324  142.5711  162.1776 C.ar    1  UNL1        0.0129
      4 C         142.2483  141.3727  162.3567 C.ar    1  UNL1        0.0181
      5 C         141.3459  141.2781  163.5512 C.ar    1  UNL1        0.0623
      6 C         141.3277  142.3820  164.5666 C.ar    1  UNL1       -0.0047
      7 C         142.2118  143.5805  164.3875 C.ar    1  UNL1        0.0086
      8 C         140.4253  142.2875  165.7611 C.3     1  UNL1        0.0358
      9 C         139.5412  141.0891  165.9402 C.3     1  UNL1        0.0709
     10 C         139.5594  139.9852  164.9247 C.ar    1  UNL1        0.1471
     11 N         138.8051  138.6918  164.8347 N.ar    1  UNL1       -0.1333
     12 N         139.2413  137.9870  163.5845 N.ar    1  UNL1       -0.1333
     13 C         140.2651  138.8447  162.9019 C.ar    1  UNL1        0.1464
     14 N         140.4618  140.0797  163.7303 N.ar    1  UNL1       -0.2810
     15 C         140.9689  138.5239  161.6167 C.3     1  UNL1        0.0594
     16 C         140.3506  138.9114  160.3062 C.3     1  UNL1        0.0112
     17 C         141.0543  138.5906  159.0208 C.3     1  UNL1        0.0440
     18 C         142.3763  137.8823  159.0461 C.3     1  UNL1        0.1676
     19 C         142.9945  137.4948  160.3567 C.3     1  UNL1        0.0440
     20 C         142.2909  137.8156  161.6420 C.3     1  UNL1        0.0112
     21 O         143.0800  137.5614  157.7609 O.3     1  UNL1       -0.4640
     22 C         142.6394  136.3877  156.9374 C.ar    1  UNL1        0.2247
     23 C         143.2743  135.0447  157.1458 C.ar    1  UNL1        0.0577
     24 C         142.8338  133.8709  156.3223 C.ar    1  UNL1        0.0064
     25 C         141.7584  134.0400  155.2904 C.ar    1  UNL1        0.0209
     26 C         141.1235  135.3830  155.0820 C.ar    1  UNL1        0.1021
     27 N         141.5640  136.5567  155.9055 N.ar    1  UNL1       -0.2101
@<TRIPOS>BOND
     1     1     2    1
     2     2     3   ar
     3     3     4   ar
     4     4     5   ar
     5     5     6   ar
     6     6     7   ar
     7     6     8    1
     8     8     9    1
     9     9    10    1
    10    10    11   ar
    11    11    12   ar
    12    12    13   ar
    13    15    13    1
    14    15    16    1
    15    16    17    1
    16    17    18    1
    17    18    21    1
    18    21    22    1
    19    22    23   ar
    20    23    24   ar
    21    24    25   ar
    22    25    26   ar
    23    26    27   ar
    24    18    19    1
    25    19    20    1
    26    13    14   ar
    27     7     2   ar
    28    14    10   ar
    29    14     5    1
    30    20    15    1
    31    27    22   ar
@<TRIPOS>MOLECULE
*****
 27 31 0 0 0
SMALL
GASTEIGER

@<TRIPOS>ATOM
      1 CL        143.9520  139.6878  159.3405 Cl      1  UNL1       -0.0823
      2 C         143.0681  140.7974  159.8279 C.ar    1  UNL1        0.0575
      3 C         142.3874  140.6841  161.1597 C.ar    1  UNL1        0.0129
      4 C         141.5035  141.7937  161.6471 C.ar    1  UNL1        0.0181
      5 C         141.3002  143.0166  160.8026 C.ar    1  UNL1        0.0623
      6 C         141.9809  143.1299  159.4708 C.ar    1  UNL1       -0.0047
      7 C         142.8648  142.0203  158.9834 C.ar    1  UNL1        0.0086
      8 C         141.7776  144.3528  158.6262 C.3     1  UNL1        0.0358
      9 C         140.8937  145.4624  159.1136 C.3     1  UNL1        0.0709
     10 C         140.2130  145.3491  160.4455 C.ar    1  UNL1        0.1471
     11 N         139.2912  146.2740  161.1834 N.ar    1  UNL1       -0.1333
     12 N         138.9247  145.6228  162.4840 N.ar    1  UNL1       -0.1333
     13 C         139.6200  144.2953  162.5499 C.ar    1  UNL1        0.1464
     14 N         140.4163  144.1262  161.2900 N.ar    1  UNL1       -0.2810
     15 C         139.5343  143.3100  163.6776 C.3     1  UNL1        0.0594
     16 C         138.4982  142.2257  163.6489 C.3     1  UNL1        0.0112
     17 C         138.4124  141.2403  164.7766 C.3     1  UNL1        0.0440
     18 C         139.3626  141.3393  165.9330 C.3     1  UNL1        0.1676
     19 C         140.3986  142.4237  165.9617 C.3     1  UNL1        0.0440
     20 C         140.4845  143.4090  164.8341 C.3     1  UNL1        0.0112
     21 O         139.2768  140.3540  167.0608 O.3     1  UNL1       -0.4640
     22 C         140.2296  140.4506  168.2152 C.ar    1  UNL1        0.2247
     23 C         141.5958  139.8397  168.1133 C.ar    1  UNL1        0.0577
     24 C         142.5486  139.9363  169.2678 C.ar    1  UNL1        0.0064
     25 C         142.1354  140.6439  170.5241 C.ar    1  UNL1        0.0209
     26 C         140.7692  141.2549  170.6260 C.ar    1  UNL1        0.1021
     27 N         139.8164  141.1582  169.4716 N.ar    1  UNL1       -0.2101
@<TRIPOS>BOND
     1     1     2    1
     2     2     3   ar
     3     3     4   ar
     4     4     5   ar
     5     5     6   ar
     6     6     7   ar
     7     6     8    1
     8     8     9    1
     9     9    10    1
    10    10    11   ar
    11    11    12   ar
    12    12    13   ar
    13    15    13    1
    14    15    16    1
    15    16    17    1
    16    17    18    1
    17    18    21    1
    18    21    22    1
    19    22    23   ar
    20    23    24   ar
    21    24    25   ar
    22    25    26   ar
    23    26    27   ar
    24    18    19    1
    25    19    20    1
    26    13    14   ar
    27     7     2   ar
    28    14    10   ar
    29    14     5    1
    30    20    15    1
    31    27    22   ar
@<TRIPOS>MOLECULE
*****
 27 31 0 0 0
SMALL
GASTEIGER

@<TRIPOS>ATOM
      1 CL        144.0237  138.0722  162.1056 Cl      1  UNL1       -0.0823
      2 C         143.3457  138.9660  163.1013 C.ar    1  UNL1        0.0575
      3 C         142.6755  140.2272  162.6428 C.ar    1  UNL1        0.0129
      4 C         141.9975  141.1209  163.6385 C.ar    1  UNL1        0.0181
      5 C         141.9897  140.7536  165.0928 C.ar    1  UNL1        0.0623
      6 C         142.6599  139.4924  165.5513 C.ar    1  UNL1       -0.0047
      7 C         143.3379  138.5986  164.5556 C.ar    1  UNL1        0.0086
      8 C         142.6521  139.1250  167.0056 C.3     1  UNL1        0.0358
      9 C         141.9741  140.0188  168.0014 C.3     1  UNL1        0.0709
     10 C         141.3039  141.2800  167.5428 C.ar    1  UNL1        0.1471
     11 N         140.5613  142.3497  168.2871 N.ar    1  UNL1       -0.1333
     12 N         140.1100  143.3782  167.2929 N.ar    1  UNL1       -0.1333
     13 C         140.5739  142.9442  165.9341 C.ar    1  UNL1        0.1464
     14 N         141.3117  141.6474  166.0885 N.ar    1  UNL1       -0.2810
     15 C         140.3408  143.6780  164.6468 C.3     1  UNL1        0.0594
     16 C         139.0489  143.5003  163.9055 C.3     1  UNL1        0.0112
     17 C         138.8157  144.2342  162.6182 C.3     1  UNL1        0.0440
     18 C         139.8745  145.1457  162.0722 C.3     1  UNL1        0.1676
     19 C         141.1663  145.3234  162.8134 C.3     1  UNL1        0.0440
     20 C         141.3995  144.5896  164.1007 C.3     1  UNL1        0.0112
     21 O         139.6414  145.8795  160.7849 O.3     1  UNL1       -0.4640
     22 C         140.1406  145.3043  159.4926 C.ar    1  UNL1        0.2247
     23 C         141.2926  145.9487  158.7802 C.ar    1  UNL1        0.0577
     24 C         141.7918  145.3735  157.4880 C.ar    1  UNL1        0.0064
     25 C         141.1391  144.1538  156.9081 C.ar    1  UNL1        0.0209
     26 C         139.9871  143.5094  157.6205 C.ar    1  UNL1        0.1021
     27 N         139.4879  144.0846  158.9128 N.ar    1  UNL1       -0.2101
@<TRIPOS>BOND
     1     1     2    1
     2     2     3   ar
     3     3     4   ar
     4     4     5   ar
     5     5     6   ar
     6     6     7   ar
     7     6     8    1
     8     8     9    1
     9     9    10    1
    10    10    11   ar
    11    11    12   ar
    12    12    13   ar
    13    15    13    1
    14    15    16    1
    15    16    17    1
    16    17    18    1
    17    18    21    1
    18    21    22    1
    19    22    23   ar
    20    23    24   ar
    21    24    25   ar
    22    25    26   ar
    23    26    27   ar
    24    18    19    1
    25    19    20    1
    26    13    14   ar
    27     7     2   ar
    28    14    10   ar
    29    14     5    1
    30    20    15    1
    31    27    22   ar
