@<TRIPOS>MOLECULE
*****
 32 36 0 0 0
SMALL
GASTEIGER

@<TRIPOS>ATOM
      1 C         140.0305  138.0825  163.1146 C.2     1  UNL1        0.2257
      2 O         140.9028  136.8711  162.9687 O.2     1  UNL1       -0.2749
      3 N         139.5102  138.7834  161.8947 N.am    1  UNL1       -0.2760
      4 C         139.8623  138.2728  160.5290 C.3     1  UNL1        0.1149
      5 C         139.3420  138.9737  159.3091 C.3     1  UNL1        0.1141
      6 N         138.4696  140.1851  159.4550 N.pl3   1  UNL1       -0.2846
      7 C         138.1175  140.6957  160.8207 C.3     1  UNL1        0.1141
      8 C         138.6378  139.9949  162.0406 C.3     1  UNL1        0.1149
      9 C         137.9493  140.8860  158.2351 C.ar    1  UNL1        0.1632
     10 N         137.0057  140.3090  157.2219 N.ar    1  UNL1       -0.2240
     11 C         136.7545  141.3533  156.1748 C.ar    1  UNL1        0.0923
     12 C         135.9097  141.3490  154.9354 C.ar    1  UNL1        0.0403
     13 C         135.8534  142.5672  154.0620 C.ar    1  UNL1        0.1005
     14 N         136.6418  143.7897  154.4281 N.ar    1  UNL1       -0.2417
     15 C         137.4865  143.7940  155.6676 C.ar    1  UNL1        0.1069
     16 C         137.5429  142.5758  156.5409 C.ar    1  UNL1        0.0689
     17 S         138.2813  142.2870  157.8143 S.2     1  UNL1       -0.0500
     18 C         140.4753  139.7063  165.0934 C.3     1  UNL1        0.0851
     19 C         140.1231  140.2169  166.4592 C.3     1  UNL1        0.0096
     20 C         138.9742  139.6143  167.2119 C.3     1  UNL1        0.0005
     21 C         138.1773  138.5011  166.5989 C.3     1  UNL1        0.0005
     22 C         138.5293  137.9905  165.2332 C.3     1  UNL1        0.0096
     23 C         139.6784  138.5931  164.4803 C.3     1  UNL1        0.0853
     24 N         142.9707  139.6486  164.3728 N.am    1  UNL1       -0.2959
     25 C         141.6243  140.3089  164.3406 C.2     1  UNL1        0.2231
     26 O         141.4268  141.5718  163.5558 O.2     1  UNL1       -0.2751
     27 H         143.1003  138.8197  164.8879 H       1  UNL1        0.1502
     28 C         144.1197  140.2512  163.6200 C.3     1  UNL1        0.1364
     29 C         145.2802  141.1457  163.2986 C.3     1  UNL1        0.0353
     30 C         144.5517  141.3008  164.6006 C.3     1  UNL1        0.0353
     31 N         144.0539  138.5704  161.1360 N.1     1  UNL1       -0.1943
     32 C         144.0868  139.4107  162.3780 C.1     1  UNL1        0.0896
@<TRIPOS>BOND
     1    31    32    3
     2    32    28    1
     3    28    24    1
     4    24    25   am
     5    25    26    2
     6    18    25    1
     7    18    19    1
     8    19    20    1
     9    20    21    1
    10    21    22    1
    11    22    23    1
    12    23     1    1
    13     1     2    2
    14     1     3   am
    15     3     4    1
    16     4     5    1
    17     5     6    1
    18     6     9    1
    19     9    10   ar
    20    10    11   ar
    21    11    12   ar
    22    12    13   ar
    23    13    14   ar
    24    14    15   ar
    25    15    16   ar
    26    16    17   ar
    27     6     7    1
    28     7     8    1
    29    28    29    1
    30    29    30    1
    31    30    28    1
    32    23    18    1
    33     8     3    1
    34    17     9   ar
    35    16    11   ar
    36    24    27    1
@<TRIPOS>MOLECULE
*****
 32 36 0 0 0
SMALL
GASTEIGER

@<TRIPOS>ATOM
      1 C         140.8071  142.0840  163.0796 C.2     1  UNL1        0.2257
      2 O         139.4257  142.5789  163.3906 O.2     1  UNL1       -0.2749
      3 N         141.0281  141.1546  161.9232 N.am    1  UNL1       -0.2760
      4 C         139.8677  140.7200  161.0778 C.3     1  UNL1        0.1149
      5 C         140.0888  139.7906  159.9214 C.3     1  UNL1        0.1141
      6 N         141.4702  139.2957  159.6104 N.pl3   1  UNL1       -0.2846
      7 C         142.6305  139.7302  160.4558 C.3     1  UNL1        0.1141
      8 C         142.4095  140.6596  161.6122 C.3     1  UNL1        0.1149
      9 C         141.6912  138.3662  158.4539 C.ar    1  UNL1        0.1632
     10 N         142.9993  137.7492  158.0563 N.ar    1  UNL1       -0.2240
     11 C         142.7595  136.8922  156.8487 C.ar    1  UNL1        0.0923
     12 C         143.6791  136.0436  156.0216 C.ar    1  UNL1        0.0403
     13 C         143.1423  135.2824  154.8458 C.ar    1  UNL1        0.1005
     14 N         141.6861  135.3699  154.4972 N.ar    1  UNL1       -0.2417
     15 C         140.7665  136.2185  155.3243 C.ar    1  UNL1        0.1069
     16 C         141.3032  136.9797  156.5001 C.ar    1  UNL1        0.0689
     17 S         140.6430  137.8907  157.4921 S.2     1  UNL1       -0.0500
     18 C         142.2311  141.8458  165.2395 C.3     1  UNL1        0.0851
     19 C         143.3916  142.2804  166.0849 C.3     1  UNL1        0.0096
     20 C         144.2882  143.3876  165.6158 C.3     1  UNL1        0.0005
     21 C         144.0244  144.0603  164.3013 C.3     1  UNL1        0.0005
     22 C         142.8641  143.6258  163.4559 C.3     1  UNL1        0.0096
     23 C         141.9674  142.5185  163.9250 C.3     1  UNL1        0.0853
     24 N         139.9587  141.0521  166.2173 N.am    1  UNL1       -0.2959
     25 C         141.3345  140.7386  165.7086 C.2     1  UNL1        0.2231
     26 O         141.8137  139.3178  165.6689 O.2     1  UNL1       -0.2751
     27 H         139.6442  141.9847  166.2433 H       1  UNL1        0.1502
     28 C         139.0621  139.9449  166.6864 C.3     1  UNL1        0.1364
     29 C         138.0308  138.8562  166.6526 C.3     1  UNL1        0.0353
     30 C         138.3630  139.6137  165.4013 C.3     1  UNL1        0.0353
     31 N         139.8377  139.8381  169.5824 N.1     1  UNL1       -0.1943
     32 C         139.4499  139.8915  168.1345 C.1     1  UNL1        0.0896
@<TRIPOS>BOND
     1    31    32    3
     2    32    28    1
     3    28    24    1
     4    24    25   am
     5    25    26    2
     6    18    25    1
     7    18    19    1
     8    19    20    1
     9    20    21    1
    10    21    22    1
    11    22    23    1
    12    23     1    1
    13     1     2    2
    14     1     3   am
    15     3     4    1
    16     4     5    1
    17     5     6    1
    18     6     9    1
    19     9    10   ar
    20    10    11   ar
    21    11    12   ar
    22    12    13   ar
    23    13    14   ar
    24    14    15   ar
    25    15    16   ar
    26    16    17   ar
    27     6     7    1
    28     7     8    1
    29    28    29    1
    30    29    30    1
    31    30    28    1
    32    23    18    1
    33     8     3    1
    34    17     9   ar
    35    16    11   ar
    36    24    27    1
@<TRIPOS>MOLECULE
*****
 32 36 0 0 0
SMALL
GASTEIGER

@<TRIPOS>ATOM
      1 C         142.5298  143.3516  162.6476 C.2     1  UNL1        0.2257
      2 O         143.7656  144.2013  162.6754 O.2     1  UNL1       -0.2749
      3 N         142.4129  142.2299  161.6585 N.am    1  UNL1       -0.2760
      4 C         143.5319  141.9579  160.6974 C.3     1  UNL1        0.1149
      5 C         143.4150  140.8362  159.7084 C.3     1  UNL1        0.1141
      6 N         142.1793  139.9865  159.6805 N.pl3   1  UNL1       -0.2846
      7 C         141.0603  140.2585  160.6417 C.3     1  UNL1        0.1141
      8 C         141.1771  141.3802  161.6307 C.3     1  UNL1        0.1149
      9 C         142.0624  138.8648  158.6915 C.ar    1  UNL1        0.1632
     10 N         143.0453  137.7470  158.5059 N.ar    1  UNL1       -0.2240
     11 C         142.5325  136.8553  157.4142 C.ar    1  UNL1        0.0923
     12 C         143.0813  135.6005  156.8023 C.ar    1  UNL1        0.0403
     13 C         142.3302  134.9125  155.7012 C.ar    1  UNL1        0.1005
     14 N         141.0303  135.4792  155.2120 N.ar    1  UNL1       -0.2417
     15 C         140.4816  136.7340  155.8239 C.ar    1  UNL1        0.1069
     16 C         141.2327  137.4220  156.9250 C.ar    1  UNL1        0.0689
     17 S         140.9422  138.6639  157.7144 S.2     1  UNL1       -0.0500
     18 C         141.3049  142.8337  164.8794 C.3     1  UNL1        0.0851
     19 C         140.1859  143.1057  165.8406 C.3     1  UNL1        0.0096
     20 C         139.1728  144.1677  165.5311 C.3     1  UNL1        0.0005
     21 C         139.2787  144.9577  164.2603 C.3     1  UNL1        0.0005
     22 C         140.3977  144.6857  163.2992 C.3     1  UNL1        0.0096
     23 C         141.4108  143.6236  163.6087 C.3     1  UNL1        0.0853
     24 N         141.9383  140.3234  165.0973 N.am    1  UNL1       -0.2959
     25 C         142.3179  141.7717  165.1890 C.2     1  UNL1        0.2231
     26 O         143.7107  142.1579  165.5903 O.2     1  UNL1       -0.2751
     27 H         141.0242  140.0699  164.8339 H       1  UNL1        0.1502
     28 C         142.9513  139.2614  165.4069 C.3     1  UNL1        0.1364
     29 C         143.7794  138.2902  166.1949 C.3     1  UNL1        0.0353
     30 C         142.7706  139.1540  166.8920 C.3     1  UNL1        0.0353
     31 N         144.0165  138.7387  162.6515 N.1     1  UNL1       -0.1943
     32 C         143.4839  139.0000  164.0291 C.1     1  UNL1        0.0896
@<TRIPOS>BOND
     1    31    32    3
     2    32    28    1
     3    28    24    1
     4    24    25   am
     5    25    26    2
     6    18    25    1
     7    18    19    1
     8    19    20    1
     9    20    21    1
    10    21    22    1
    11    22    23    1
    12    23     1    1
    13     1     2    2
    14     1     3   am
    15     3     4    1
    16     4     5    1
    17     5     6    1
    18     6     9    1
    19     9    10   ar
    20    10    11   ar
    21    11    12   ar
    22    12    13   ar
    23    13    14   ar
    24    14    15   ar
    25    15    16   ar
    26    16    17   ar
    27     6     7    1
    28     7     8    1
    29    28    29    1
    30    29    30    1
    31    30    28    1
    32    23    18    1
    33     8     3    1
    34    17     9   ar
    35    16    11   ar
    36    24    27    1
@<TRIPOS>MOLECULE
*****
 32 36 0 0 0
SMALL
GASTEIGER

@<TRIPOS>ATOM
      1 C         138.4960  139.5388  161.4829 C.2     1  UNL1        0.2257
      2 O         137.1495  139.5447  160.8222 O.2     1  UNL1       -0.2749
      3 N         139.7228  139.8760  160.6884 N.am    1  UNL1       -0.2760
      4 C         139.6031  140.2191  159.2331 C.3     1  UNL1        0.1149
      5 C         140.8299  140.5563  158.4386 C.3     1  UNL1        0.1141
      6 N         142.1764  140.5504  159.0994 N.pl3   1  UNL1       -0.2846
      7 C         142.2962  140.2073  160.5547 C.3     1  UNL1        0.1141
      8 C         141.0694  139.8701  161.3492 C.3     1  UNL1        0.1149
      9 C         143.4032  140.8876  158.3049 C.ar    1  UNL1        0.1632
     10 N         144.4014  141.9574  158.6355 N.ar    1  UNL1       -0.2240
     11 C         145.4623  141.9452  157.5752 C.ar    1  UNL1        0.0923
     12 C         146.6959  142.7759  157.3801 C.ar    1  UNL1        0.0403
     13 C         147.5872  142.5292  156.1991 C.ar    1  UNL1        0.1005
     14 N         147.2448  141.4519  155.2132 N.ar    1  UNL1       -0.2417
     15 C         146.0111  140.6212  155.4082 C.ar    1  UNL1        0.1069
     16 C         145.1199  140.8678  156.5893 C.ar    1  UNL1        0.0689
     17 S         143.8474  140.2142  157.0402 S.2     1  UNL1       -0.0500
     18 C         138.5485  140.2800  163.9724 C.3     1  UNL1        0.0851
     19 C         138.6682  139.9369  165.4278 C.3     1  UNL1        0.0096
     20 C         138.8553  138.5094  165.8488 C.3     1  UNL1        0.0005
     21 C         138.9227  137.4250  164.8146 C.3     1  UNL1        0.0005
     22 C         138.8029  137.7681  163.3593 C.3     1  UNL1        0.0096
     23 C         138.6158  139.1957  162.9382 C.3     1  UNL1        0.0853
     24 N         139.5051  142.6734  163.6459 N.am    1  UNL1       -0.2959
     25 C         138.3614  141.7075  163.5514 C.2     1  UNL1        0.2231
     26 O         137.0305  142.1690  163.0359 O.2     1  UNL1       -0.2751
     27 H         140.3786  142.3704  163.9842 H       1  UNL1        0.1502
     28 C         139.3180  144.1008  163.2248 C.3     1  UNL1        0.1364
     29 C         139.2906  145.3213  162.3532 C.3     1  UNL1        0.0353
     30 C         139.7127  144.0005  161.7812 C.3     1  UNL1        0.0353
     31 N         138.3986  145.2930  165.8197 N.1     1  UNL1       -0.1943
     32 C         138.8583  144.6970  164.5223 C.1     1  UNL1        0.0896
@<TRIPOS>BOND
     1    31    32    3
     2    32    28    1
     3    28    24    1
     4    24    25   am
     5    25    26    2
     6    18    25    1
     7    18    19    1
     8    19    20    1
     9    20    21    1
    10    21    22    1
    11    22    23    1
    12    23     1    1
    13     1     2    2
    14     1     3   am
    15     3     4    1
    16     4     5    1
    17     5     6    1
    18     6     9    1
    19     9    10   ar
    20    10    11   ar
    21    11    12   ar
    22    12    13   ar
    23    13    14   ar
    24    14    15   ar
    25    15    16   ar
    26    16    17   ar
    27     6     7    1
    28     7     8    1
    29    28    29    1
    30    29    30    1
    31    30    28    1
    32    23    18    1
    33     8     3    1
    34    17     9   ar
    35    16    11   ar
    36    24    27    1
@<TRIPOS>MOLECULE
*****
 32 36 0 0 0
SMALL
GASTEIGER

@<TRIPOS>ATOM
      1 C         138.1721  141.1049  163.5424 C.2     1  UNL1        0.2257
      2 O         137.1218  142.1664  163.4013 O.2     1  UNL1       -0.2749
      3 N         138.7286  140.4334  162.3219 N.am    1  UNL1       -0.2760
      4 C         138.2347  140.8236  160.9603 C.3     1  UNL1        0.1149
      5 C         138.7911  140.1521  159.7399 C.3     1  UNL1        0.1141
      6 N         139.8414  139.0906  159.8809 N.pl3   1  UNL1       -0.2846
      7 C         140.3353  138.7005  161.2425 C.3     1  UNL1        0.1141
      8 C         139.7789  139.3719  162.4629 C.3     1  UNL1        0.1149
      9 C         140.3979  138.4192  158.6604 C.ar    1  UNL1        0.1632
     10 N         139.5981  137.8171  157.5434 N.ar    1  UNL1       -0.2240
     11 C         140.5577  137.2578  156.5353 C.ar    1  UNL1        0.0923
     12 C         140.3431  136.5482  155.2313 C.ar    1  UNL1        0.0403
     13 C         141.5214  136.0949  154.4214 C.ar    1  UNL1        0.1005
     14 N         142.9144  136.3513  154.9154 N.ar    1  UNL1       -0.2417
     15 C         143.1289  137.0609  156.2193 C.ar    1  UNL1        0.1069
     16 C         141.9506  137.5142  157.0293 C.ar    1  UNL1        0.0689
     17 S         141.8518  138.2320  158.3427 S.2     1  UNL1       -0.0500
     18 C         139.7909  141.4761  165.5403 C.3     1  UNL1        0.0851
     19 C         140.2847  141.0859  166.9019 C.3     1  UNL1        0.0096
     20 C         139.6537  139.9344  167.6271 C.3     1  UNL1        0.0005
     21 C         138.5288  139.1731  166.9907 C.3     1  UNL1        0.0005
     22 C         138.0349  139.5632  165.6292 C.3     1  UNL1        0.0096
     23 C         138.6660  140.7147  164.9039 C.3     1  UNL1        0.0853
     24 N         141.6575  142.4097  163.9930 N.am    1  UNL1       -0.2959
     25 C         140.4219  142.6275  164.8151 C.2     1  UNL1        0.2231
     26 O         139.8173  143.9968  164.9120 O.2     1  UNL1       -0.2751
     27 H         142.0543  141.5109  163.9294 H       1  UNL1        0.1502
     28 C         142.2886  143.5611  163.2679 C.3     1  UNL1        0.1364
     29 C         143.1734  144.7416  162.9967 C.3     1  UNL1        0.0353
     30 C         143.2385  144.0445  164.3232 C.3     1  UNL1        0.0353
     31 N         140.8269  143.3940  160.6534 N.1     1  UNL1       -0.1943
     32 C         141.5577  143.4776  161.9606 C.1     1  UNL1        0.0896
@<TRIPOS>BOND
     1    31    32    3
     2    32    28    1
     3    28    24    1
     4    24    25   am
     5    25    26    2
     6    18    25    1
     7    18    19    1
     8    19    20    1
     9    20    21    1
    10    21    22    1
    11    22    23    1
    12    23     1    1
    13     1     2    2
    14     1     3   am
    15     3     4    1
    16     4     5    1
    17     5     6    1
    18     6     9    1
    19     9    10   ar
    20    10    11   ar
    21    11    12   ar
    22    12    13   ar
    23    13    14   ar
    24    14    15   ar
    25    15    16   ar
    26    16    17   ar
    27     6     7    1
    28     7     8    1
    29    28    29    1
    30    29    30    1
    31    30    28    1
    32    23    18    1
    33     8     3    1
    34    17     9   ar
    35    16    11   ar
    36    24    27    1
@<TRIPOS>MOLECULE
*****
 32 36 0 0 0
SMALL
GASTEIGER

@<TRIPOS>ATOM
      1 C         142.2639  143.0674  164.2751 C.2     1  UNL1        0.2257
      2 O         143.1606  143.1336  165.4756 O.2     1  UNL1       -0.2749
      3 N         142.8452  142.7979  162.9187 N.am    1  UNL1       -0.2760
      4 C         144.3231  142.5947  162.7630 C.3     1  UNL1        0.1149
      5 C         144.9044  142.3253  161.4067 C.3     1  UNL1        0.1141
      6 N         144.0076  142.2590  160.2061 N.pl3   1  UNL1       -0.2846
      7 C         142.5297  142.4622  160.3619 C.3     1  UNL1        0.1141
      8 C         141.9484  142.7316  161.7182 C.3     1  UNL1        0.1149
      9 C         144.5889  141.9896  158.8498 C.ar    1  UNL1        0.1632
     10 N         145.7398  142.7192  158.2230 N.ar    1  UNL1       -0.2240
     11 C         145.9835  142.1238  156.8680 C.ar    1  UNL1        0.0923
     12 C         146.9870  142.4393  155.7987 C.ar    1  UNL1        0.0403
     13 C         146.9902  141.6571  154.5189 C.ar    1  UNL1        0.1005
     14 N         145.9898  140.5594  154.3082 N.ar    1  UNL1       -0.2417
     15 C         144.9863  140.2439  155.3775 C.ar    1  UNL1        0.1069
     16 C         144.9831  141.0261  156.6573 C.ar    1  UNL1        0.0689
     17 S         144.1212  140.9432  157.8822 S.2     1  UNL1       -0.0500
     18 C         139.8877  142.0926  164.6663 C.3     1  UNL1        0.0851
     19 C         138.4096  142.2958  164.8221 C.3     1  UNL1        0.0096
     20 C         137.8300  143.6769  164.7422 C.3     1  UNL1        0.0005
     21 C         138.7282  144.8549  164.5067 C.3     1  UNL1        0.0005
     22 C         140.2062  144.6517  164.3509 C.3     1  UNL1        0.0096
     23 C         140.7860  143.2705  164.4308 C.3     1  UNL1        0.0853
     24 N         140.4807  139.8323  163.5309 N.am    1  UNL1       -0.2959
     25 C         140.4673  140.7114  164.7462 C.2     1  UNL1        0.2231
     26 O         141.0336  140.2095  166.0413 O.2     1  UNL1       -0.2751
     27 H         140.1091  140.1617  162.6809 H       1  UNL1        0.1502
     28 C         141.0604  138.4511  163.6108 C.3     1  UNL1        0.1364
     29 C         141.1501  136.9710  163.8371 C.3     1  UNL1        0.0353
     30 C         139.8508  137.6865  164.0603 C.3     1  UNL1        0.0353
     31 N         143.8823  139.0211  162.7671 N.1     1  UNL1       -0.1943
     32 C         142.4714  138.7361  163.1889 C.1     1  UNL1        0.0896
@<TRIPOS>BOND
     1    31    32    3
     2    32    28    1
     3    28    24    1
     4    24    25   am
     5    25    26    2
     6    18    25    1
     7    18    19    1
     8    19    20    1
     9    20    21    1
    10    21    22    1
    11    22    23    1
    12    23     1    1
    13     1     2    2
    14     1     3   am
    15     3     4    1
    16     4     5    1
    17     5     6    1
    18     6     9    1
    19     9    10   ar
    20    10    11   ar
    21    11    12   ar
    22    12    13   ar
    23    13    14   ar
    24    14    15   ar
    25    15    16   ar
    26    16    17   ar
    27     6     7    1
    28     7     8    1
    29    28    29    1
    30    29    30    1
    31    30    28    1
    32    23    18    1
    33     8     3    1
    34    17     9   ar
    35    16    11   ar
    36    24    27    1
@<TRIPOS>MOLECULE
*****
 32 36 0 0 0
SMALL
GASTEIGER

@<TRIPOS>ATOM
      1 C         143.1676  141.5591  163.1700 C.2     1  UNL1        0.2257
      2 O         144.3677  141.2871  164.0277 O.2     1  UNL1       -0.2749
      3 N         142.9325  140.7483  161.9301 N.am    1  UNL1       -0.2760
      4 C         143.8976  139.6656  161.5479 C.3     1  UNL1        0.1149
      5 C         143.6625  138.8548  160.3080 C.3     1  UNL1        0.1141
      6 N         142.4623  139.1268  159.4503 N.pl3   1  UNL1       -0.2846
      7 C         141.4972  140.2095  159.8326 C.3     1  UNL1        0.1141
      8 C         141.7323  141.0203  161.0725 C.3     1  UNL1        0.1149
      9 C         142.2272  138.3160  158.2104 C.ar    1  UNL1        0.1632
     10 N         143.2846  137.6637  157.3698 N.ar    1  UNL1       -0.2240
     11 C         142.6044  136.9597  156.2333 C.ar    1  UNL1        0.0923
     12 C         143.1396  136.1490  155.0904 C.ar    1  UNL1        0.0403
     13 C         142.1972  135.5554  154.0858 C.ar    1  UNL1        0.1005
     14 N         140.7194  135.7726  154.2239 N.ar    1  UNL1       -0.2417
     15 C         140.1841  136.5833  155.3668 C.ar    1  UNL1        0.1069
     16 C         141.1266  137.1769  156.3715 C.ar    1  UNL1        0.0689
     17 S         140.8936  138.0151  157.5934 S.2     1  UNL1       -0.0500
     18 C         140.9699  142.3049  164.3379 C.3     1  UNL1        0.0851
     19 C         140.0048  143.3877  164.7202 C.3     1  UNL1        0.0096
     20 C         140.2723  144.8075  164.3169 C.3     1  UNL1        0.0005
     21 C         141.5049  145.1445  163.5313 C.3     1  UNL1        0.0005
     22 C         142.4700  144.0617  163.1490 C.3     1  UNL1        0.0096
     23 C         142.2025  142.6419  163.5523 C.3     1  UNL1        0.0853
     24 N         139.6137  140.1058  164.0649 N.am    1  UNL1       -0.2959
     25 C         140.7023  140.8851  164.7412 C.2     1  UNL1        0.2231
     26 O         141.5235  140.2447  165.8207 O.2     1  UNL1       -0.2751
     27 H         139.0747  140.5261  163.3563 H       1  UNL1        0.1502
     28 C         139.3461  138.6860  164.4682 C.3     1  UNL1        0.1364
     29 C         138.7873  137.5166  165.2233 C.3     1  UNL1        0.0353
     30 C         138.4144  138.9139  165.6213 C.3     1  UNL1        0.0353
     31 N         141.0238  137.2440  162.4418 N.1     1  UNL1       -0.1943
     32 C         140.1850  137.9650  163.4550 C.1     1  UNL1        0.0896
@<TRIPOS>BOND
     1    31    32    3
     2    32    28    1
     3    28    24    1
     4    24    25   am
     5    25    26    2
     6    18    25    1
     7    18    19    1
     8    19    20    1
     9    20    21    1
    10    21    22    1
    11    22    23    1
    12    23     1    1
    13     1     2    2
    14     1     3   am
    15     3     4    1
    16     4     5    1
    17     5     6    1
    18     6     9    1
    19     9    10   ar
    20    10    11   ar
    21    11    12   ar
    22    12    13   ar
    23    13    14   ar
    24    14    15   ar
    25    15    16   ar
    26    16    17   ar
    27     6     7    1
    28     7     8    1
    29    28    29    1
    30    29    30    1
    31    30    28    1
    32    23    18    1
    33     8     3    1
    34    17     9   ar
    35    16    11   ar
    36    24    27    1
@<TRIPOS>MOLECULE
*****
 32 36 0 0 0
SMALL
GASTEIGER

@<TRIPOS>ATOM
      1 C         139.9738  143.2096  164.1254 C.2     1  UNL1        0.2257
      2 O         140.0533  144.2242  165.2273 O.2     1  UNL1       -0.2749
      3 N         140.1719  143.6330  162.7001 N.am    1  UNL1       -0.2760
      4 C         140.4495  145.0712  162.3767 C.3     1  UNL1        0.1149
      5 C         140.6476  145.4946  160.9514 C.3     1  UNL1        0.1141
      6 N         140.5680  144.4800  159.8496 N.pl3   1  UNL1       -0.2846
      7 C         140.2904  143.0419  160.1730 C.3     1  UNL1        0.1141
      8 C         140.0923  142.6184  161.5983 C.3     1  UNL1        0.1149
      9 C         140.7661  144.9035  158.4243 C.ar    1  UNL1        0.1632
     10 N         139.9911  145.9672  157.7047 N.ar    1  UNL1       -0.2240
     11 C         140.5200  146.0587  156.3040 C.ar    1  UNL1        0.0923
     12 C         140.1406  146.9290  155.1428 C.ar    1  UNL1        0.0403
     13 C         140.8631  146.7922  153.8354 C.ar    1  UNL1        0.1005
     14 N         141.9651  145.7850  153.6893 N.ar    1  UNL1       -0.2417
     15 C         142.3445  144.9147  154.8506 C.ar    1  UNL1        0.1069
     16 C         141.6220  145.0516  156.1579 C.ar    1  UNL1        0.0689
     17 S         141.7741  144.3376  157.4683 S.2     1  UNL1       -0.0500
     18 C         140.8312  140.8366  164.7448 C.3     1  UNL1        0.0851
     19 C         140.5535  139.3984  165.0683 C.3     1  UNL1        0.0096
     20 C         139.1407  138.8951  165.0958 C.3     1  UNL1        0.0005
     21 C         138.0056  139.8300  164.7998 C.3     1  UNL1        0.0005
     22 C         138.2833  141.2681  164.4763 C.3     1  UNL1        0.0096
     23 C         139.6961  141.7715  164.4489 C.3     1  UNL1        0.0853
     24 N         143.0626  141.2090  163.4673 N.am    1  UNL1       -0.2959
     25 C         142.2440  141.3399  164.7174 C.2     1  UNL1        0.2231
     26 O         142.8381  141.9739  165.9400 O.2     1  UNL1       -0.2751
     27 H         142.6726  140.7929  162.6648 H       1  UNL1        0.1502
     28 C         144.4753  141.7123  163.4398 C.3     1  UNL1        0.1364
     29 C         145.9681  141.7310  163.5859 C.3     1  UNL1        0.0353
     30 C         145.1962  140.4917  163.9301 C.3     1  UNL1        0.0353
     31 N         144.0147  144.5031  162.4402 N.1     1  UNL1       -0.1943
     32 C         144.2450  143.1077  162.9400 C.1     1  UNL1        0.0896
@<TRIPOS>BOND
     1    31    32    3
     2    32    28    1
     3    28    24    1
     4    24    25   am
     5    25    26    2
     6    18    25    1
     7    18    19    1
     8    19    20    1
     9    20    21    1
    10    21    22    1
    11    22    23    1
    12    23     1    1
    13     1     2    2
    14     1     3   am
    15     3     4    1
    16     4     5    1
    17     5     6    1
    18     6     9    1
    19     9    10   ar
    20    10    11   ar
    21    11    12   ar
    22    12    13   ar
    23    13    14   ar
    24    14    15   ar
    25    15    16   ar
    26    16    17   ar
    27     6     7    1
    28     7     8    1
    29    28    29    1
    30    29    30    1
    31    30    28    1
    32    23    18    1
    33     8     3    1
    34    17     9   ar
    35    16    11   ar
    36    24    27    1
@<TRIPOS>MOLECULE
*****
 32 36 0 0 0
SMALL
GASTEIGER

@<TRIPOS>ATOM
      1 C         138.6468  139.9808  160.9836 C.2     1  UNL1        0.2257
      2 O         137.2124  139.8203  160.5754 O.2     1  UNL1       -0.2749
      3 N         138.9969  140.1904  162.4271 N.am    1  UNL1       -0.2760
      4 C         137.9126  140.2394  163.4623 C.3     1  UNL1        0.1149
      5 C         138.2627  140.4490  164.9058 C.3     1  UNL1        0.1141
      6 N         139.6971  140.6095  165.3139 N.pl3   1  UNL1       -0.2846
      7 C         140.7814  140.5605  164.2787 C.3     1  UNL1        0.1141
      8 C         140.4313  140.3509  162.8352 C.3     1  UNL1        0.1149
      9 C         140.0472  140.8191  166.7574 C.ar    1  UNL1        0.1632
     10 N         140.9503  141.8871  167.2995 N.ar    1  UNL1       -0.2240
     11 C         141.0169  141.7255  168.7893 C.ar    1  UNL1        0.0923
     12 C         141.7510  142.4909  169.8500 C.ar    1  UNL1        0.0403
     13 C         141.6233  142.0885  171.2894 C.ar    1  UNL1        0.1005
     14 N         140.7615  140.9206  171.6679 N.ar    1  UNL1       -0.2417
     15 C         140.0274  140.1552  170.6072 C.ar    1  UNL1        0.1069
     16 C         140.1551  140.5576  169.1679 C.ar    1  UNL1        0.0689
     17 S         139.5558  139.9975  167.9121 S.2     1  UNL1       -0.0500
     18 C         140.2722  141.2048  159.3681 C.3     1  UNL1        0.0851
     19 C         141.3565  141.1557  158.3327 C.3     1  UNL1        0.0096
     20 C         141.8998  139.8337  157.8777 C.3     1  UNL1        0.0005
     21 C         141.3587  138.5607  158.4580 C.3     1  UNL1        0.0005
     22 C         140.2744  138.6097  159.4933 C.3     1  UNL1        0.0096
     23 C         139.7311  139.9318  159.9483 C.3     1  UNL1        0.0853
     24 N         140.3963  143.2659  160.9448 N.am    1  UNL1       -0.2959
     25 C         139.7290  142.5268  159.8231 C.2     1  UNL1        0.2231
     26 O         138.5184  143.1098  159.1563 O.2     1  UNL1       -0.2751
     27 H         141.1909  142.8833  161.3825 H       1  UNL1        0.1502
     28 C         139.8531  144.5880  161.3999 C.3     1  UNL1        0.1364
     29 C         139.6668  146.0722  161.5119 C.3     1  UNL1        0.0353
     30 C         140.6923  145.5139  160.5702 C.3     1  UNL1        0.0353
     31 N         137.7972  143.6544  163.3752 N.1     1  UNL1       -0.1943
     32 C         138.8251  144.1212  162.3875 C.1     1  UNL1        0.0896
@<TRIPOS>BOND
     1    31    32    3
     2    32    28    1
     3    28    24    1
     4    24    25   am
     5    25    26    2
     6    18    25    1
     7    18    19    1
     8    19    20    1
     9    20    21    1
    10    21    22    1
    11    22    23    1
    12    23     1    1
    13     1     2    2
    14     1     3   am
    15     3     4    1
    16     4     5    1
    17     5     6    1
    18     6     9    1
    19     9    10   ar
    20    10    11   ar
    21    11    12   ar
    22    12    13   ar
    23    13    14   ar
    24    14    15   ar
    25    15    16   ar
    26    16    17   ar
    27     6     7    1
    28     7     8    1
    29    28    29    1
    30    29    30    1
    31    30    28    1
    32    23    18    1
    33     8     3    1
    34    17     9   ar
    35    16    11   ar
    36    24    27    1
