@<TRIPOS>MOLECULE
*****
 30 32 0 0 0
SMALL
GASTEIGER

@<TRIPOS>ATOM
      1 C         138.4706  139.8243  164.3221 C.ar    1  UNL1        0.1377
      2 C         138.8185  138.6703  163.4291 C.ar    1  UNL1        0.1397
      3 N         138.6089  138.7785  161.9478 N.ar    1  UNL1       -0.2027
      4 C         138.0514  140.0406  161.3594 C.ar    1  UNL1        0.2367
      5 N         137.7035  141.1946  162.2523 N.ar    1  UNL1       -0.1828
      6 C         137.9131  141.0865  163.7336 C.ar    1  UNL1        0.2339
      7 C         139.8113  140.5634  167.9835 C.3     1  UNL1        0.1109
      8 N         139.6017  140.6716  166.5022 N.am    1  UNL1       -0.2990
      9 C         138.6802  139.7162  165.8034 C.2     1  UNL1        0.2532
     10 O         137.9684  138.6527  166.5859 O.2     1  UNL1       -0.2699
     11 H         140.0688  141.3696  165.9886 H       1  UNL1        0.1498
     12 N         139.3760  137.4082  164.0176 N.pl3   1  UNL1       -0.3178
     13 H         138.8109  136.8405  164.5899 H       1  UNL1        0.1482
     14 C         140.7943  137.0111  163.7339 C.3     1  UNL1        0.0881
     15 C         141.8649  138.0588  163.6545 C.3     1  UNL1        0.0196
     16 C         142.3459  138.7358  164.9035 C.3     1  UNL1        0.0017
     17 C         143.4165  139.7835  164.8241 C.3     1  UNL1        0.0001
     18 C         144.0061  140.1540  163.4956 C.3     1  UNL1        0.0000
     19 C         144.7188  141.0200  164.4918 C.3     1  UNL1        0.0000
     20 C         145.5202  141.6357  163.3833 C.3     1  UNL1        0.0000
     21 C         144.8075  140.7697  162.3871 C.3     1  UNL1        0.0000
     22 C         143.5251  139.4770  162.2465 C.3     1  UNL1        0.0001
     23 C         142.4545  138.4293  162.3260 C.3     1  UNL1        0.0017
     24 C         137.8418  140.1487  159.8781 C.1     1  UNL1        0.1401
     25 N         137.6321  140.2569  158.3967 N.1     1  UNL1       -0.1876
     26 O         137.5652  142.2404  164.6265 O.3     1  UNL1       -0.4573
     27 C         138.4350  143.4624  164.6461 C.3     1  UNL1        0.2387
     28 C         138.5846  144.2964  163.4083 C.3     1  UNL1        0.1848
     29 O         137.4528  144.3948  162.4289 O.3     1  UNL1       -0.3784
     30 H         137.3004  143.5273  162.0227 H       1  UNL1        0.2106
@<TRIPOS>BOND
     1     7     8    1
     2     8     9   am
     3     9    10    2
     4     9     1    1
     5     1     2   ar
     6     2    12    1
     7    12    14    1
     8    14    15    1
     9    15    16    1
    10    16    17    1
    11    17    18    1
    12    18    19    1
    13    19    20    1
    14    20    21    1
    15    18    22    1
    16    22    23    1
    17     2     3   ar
    18     3     4   ar
    19     4    24    1
    20    24    25    3
    21     4     5   ar
    22     5     6   ar
    23     6    26    1
    24    26    27    1
    25    27    28    1
    26    28    29    1
    27     6     1   ar
    28    23    15    1
    29    21    18    1
    30     8    11    1
    31    12    13    1
    32    29    30    1
@<TRIPOS>MOLECULE
*****
 30 32 0 0 0
SMALL
GASTEIGER

@<TRIPOS>ATOM
      1 C         141.0283  144.2412  162.5036 C.ar    1  UNL1        0.1377
      2 C         139.7348  144.6120  161.8406 C.ar    1  UNL1        0.1397
      3 N         139.7238  145.0343  160.4014 N.ar    1  UNL1       -0.2027
      4 C         141.0063  145.0858  159.6250 C.ar    1  UNL1        0.2367
      5 N         142.2997  144.7150  160.2879 N.ar    1  UNL1       -0.1828
      6 C         142.3107  144.2927  161.7273 C.ar    1  UNL1        0.2339
      7 C         141.9007  142.2403  165.8180 C.3     1  UNL1        0.1109
      8 N         141.8897  142.6626  164.3788 N.am    1  UNL1       -0.2990
      9 C         141.0393  143.8189  163.9429 C.2     1  UNL1        0.2532
     10 O         140.1999  144.5528  164.9463 O.2     1  UNL1       -0.2699
     11 H         142.4406  142.1809  163.7202 H       1  UNL1        0.1498
     12 N         138.4524  144.5605  162.6169 N.pl3   1  UNL1       -0.3178
     13 H         138.2227  145.2899  163.2369 H       1  UNL1        0.1482
     14 C         137.5200  143.3977  162.4487 C.3     1  UNL1        0.0881
     15 C         137.8591  142.0700  163.0588 C.3     1  UNL1        0.0196
     16 C         138.0046  141.9433  164.5463 C.3     1  UNL1        0.0017
     17 C         138.3438  140.6157  165.1564 C.3     1  UNL1        0.0001
     18 C         138.5374  139.4146  164.2790 C.3     1  UNL1        0.0000
     19 C         138.7576  138.9144  165.6759 C.3     1  UNL1        0.0000
     20 C         139.0171  137.5369  165.1418 C.3     1  UNL1        0.0000
     21 C         138.7969  138.0371  163.7449 C.3     1  UNL1        0.0000
     22 C         138.3919  139.5412  162.7915 C.3     1  UNL1        0.0001
     23 C         138.0528  140.8689  162.1814 C.3     1  UNL1        0.0017
     24 C         140.9953  145.5081  158.1858 C.1     1  UNL1        0.1401
     25 N         140.9844  145.9304  156.7464 N.1     1  UNL1       -0.1876
     26 O         143.6042  143.9219  162.3902 O.3     1  UNL1       -0.4573
     27 C         144.5320  142.9451  161.7306 C.3     1  UNL1        0.2387
     28 C         145.0474  141.7642  162.4987 C.3     1  UNL1        0.1848
     29 O         146.4121  141.8111  163.1196 O.3     1  UNL1       -0.3784
     30 H         147.0837  141.8561  162.4211 H       1  UNL1        0.2106
@<TRIPOS>BOND
     1     7     8    1
     2     8     9   am
     3     9    10    2
     4     9     1    1
     5     1     2   ar
     6     2    12    1
     7    12    14    1
     8    14    15    1
     9    15    16    1
    10    16    17    1
    11    17    18    1
    12    18    19    1
    13    19    20    1
    14    20    21    1
    15    18    22    1
    16    22    23    1
    17     2     3   ar
    18     3     4   ar
    19     4    24    1
    20    24    25    3
    21     4     5   ar
    22     5     6   ar
    23     6    26    1
    24    26    27    1
    25    27    28    1
    26    28    29    1
    27     6     1   ar
    28    23    15    1
    29    21    18    1
    30     8    11    1
    31    12    13    1
    32    29    30    1
@<TRIPOS>MOLECULE
*****
 30 32 0 0 0
SMALL
GASTEIGER

@<TRIPOS>ATOM
      1 C         140.1771  140.9547  163.3971 C.ar    1  UNL1        0.1377
      2 C         140.7758  139.7383  164.0390 C.ar    1  UNL1        0.1397
      3 N         139.9906  138.9632  165.0552 N.ar    1  UNL1       -0.2027
      4 C         138.6067  139.4043  165.4294 C.ar    1  UNL1        0.2367
      5 N         138.0079  140.6207  164.7876 N.ar    1  UNL1       -0.1828
      6 C         138.7932  141.3959  163.7714 C.ar    1  UNL1        0.2339
      7 C         141.9594  143.9790  161.5459 C.3     1  UNL1        0.1109
      8 N         141.1742  143.2038  162.5620 N.am    1  UNL1       -0.2990
      9 C         140.9623  141.7299  162.3810 C.2     1  UNL1        0.2532
     10 O         141.5356  141.0312  161.1839 O.2     1  UNL1       -0.2699
     11 H         140.7979  143.6624  163.3477 H       1  UNL1        0.1498
     12 N         142.1597  139.2971  163.6648 N.pl3   1  UNL1       -0.3178
     13 H         142.2961  138.7144  162.8830 H       1  UNL1        0.1482
     14 C         143.3359  139.7437  164.4815 C.3     1  UNL1        0.0881
     15 C         143.1319  140.2355  165.8839 C.3     1  UNL1        0.0196
     16 C         143.1572  141.7069  166.1738 C.3     1  UNL1        0.0017
     17 C         142.9532  142.1987  167.5761 C.3     1  UNL1        0.0001
     18 C         142.7238  141.2190  168.6885 C.3     1  UNL1        0.0000
     19 C         142.6835  142.5675  169.3444 C.3     1  UNL1        0.0000
     20 C         142.4352  141.9144  170.6718 C.3     1  UNL1        0.0000
     21 C         142.4755  140.5659  170.0160 C.3     1  UNL1        0.0000
     22 C         142.6984  139.7475  168.3986 C.3     1  UNL1        0.0001
     23 C         142.9024  139.2558  166.9963 C.3     1  UNL1        0.0017
     24 C         137.8215  138.6292  166.4456 C.1     1  UNL1        0.1401
     25 N         137.0362  137.8540  167.4618 N.1     1  UNL1       -0.1876
     26 O         138.1944  142.6122  163.1296 O.3     1  UNL1       -0.4573
     27 C         137.8408  143.8052  163.9674 C.3     1  UNL1        0.2387
     28 C         138.8699  144.4200  164.8691 C.3     1  UNL1        0.1848
     29 O         139.8975  145.3562  164.3057 O.3     1  UNL1       -0.3784
     30 H         140.4805  144.8706  163.7014 H       1  UNL1        0.2106
@<TRIPOS>BOND
     1     7     8    1
     2     8     9   am
     3     9    10    2
     4     9     1    1
     5     1     2   ar
     6     2    12    1
     7    12    14    1
     8    14    15    1
     9    15    16    1
    10    16    17    1
    11    17    18    1
    12    18    19    1
    13    19    20    1
    14    20    21    1
    15    18    22    1
    16    22    23    1
    17     2     3   ar
    18     3     4   ar
    19     4    24    1
    20    24    25    3
    21     4     5   ar
    22     5     6   ar
    23     6    26    1
    24    26    27    1
    25    27    28    1
    26    28    29    1
    27     6     1   ar
    28    23    15    1
    29    21    18    1
    30     8    11    1
    31    12    13    1
    32    29    30    1
@<TRIPOS>MOLECULE
*****
 30 32 0 0 0
SMALL
GASTEIGER

@<TRIPOS>ATOM
      1 C         142.5546  143.8938  163.4964 C.ar    1  UNL1        0.1377
      2 C         143.4098  143.8175  162.2664 C.ar    1  UNL1        0.1397
      3 N         142.8576  144.2511  160.9409 N.ar    1  UNL1       -0.2027
      4 C         141.4501  144.7610  160.8453 C.ar    1  UNL1        0.2367
      5 N         140.5949  144.8373  162.0752 N.ar    1  UNL1       -0.1828
      6 C         141.1472  144.4037  163.4008 C.ar    1  UNL1        0.2339
      7 C         142.8423  142.1496  167.0496 C.3     1  UNL1        0.1109
      8 N         142.2901  142.5832  165.7241 N.am    1  UNL1       -0.2990
      9 C         143.1068  143.4602  164.8219 C.2     1  UNL1        0.2532
     10 O         144.4758  143.9037  165.2454 O.2     1  UNL1       -0.2699
     11 H         141.3916  142.2921  165.4462 H       1  UNL1        0.1498
     12 N         144.8173  143.3076  162.3620 N.pl3   1  UNL1       -0.3178
     13 H         145.5446  143.9166  162.6252 H       1  UNL1        0.1482
     14 C         145.1165  141.8699  162.0565 C.3     1  UNL1        0.0881
     15 C         144.2402  140.7869  162.6127 C.3     1  UNL1        0.0196
     16 C         144.4573  140.2909  164.0116 C.3     1  UNL1        0.0017
     17 C         143.5810  139.2079  164.5678 C.3     1  UNL1        0.0001
     18 C         142.4878  138.6209  163.7251 C.3     1  UNL1        0.0000
     19 C         142.4031  137.8923  165.0335 C.3     1  UNL1        0.0000
     20 C         141.2486  137.0893  164.5117 C.3     1  UNL1        0.0000
     21 C         141.3332  137.8179  163.2032 C.3     1  UNL1        0.0000
     22 C         142.2708  139.1169  162.3262 C.3     1  UNL1        0.0001
     23 C         143.1470  140.1999  161.7700 C.3     1  UNL1        0.0017
     24 C         140.8979  145.1946  159.5198 C.1     1  UNL1        0.1401
     25 N         140.3456  145.6281  158.1943 N.1     1  UNL1       -0.1876
     26 O         140.2920  144.4800  164.6308 O.3     1  UNL1       -0.4573
     27 C         139.0132  143.6993  164.7048 C.3     1  UNL1        0.2387
     28 C         137.7458  144.2819  164.1530 C.3     1  UNL1        0.1848
     29 O         137.5434  144.3671  162.6691 O.3     1  UNL1       -0.3784
     30 H         138.1856  144.9875  162.2903 H       1  UNL1        0.2106
@<TRIPOS>BOND
     1     7     8    1
     2     8     9   am
     3     9    10    2
     4     9     1    1
     5     1     2   ar
     6     2    12    1
     7    12    14    1
     8    14    15    1
     9    15    16    1
    10    16    17    1
    11    17    18    1
    12    18    19    1
    13    19    20    1
    14    20    21    1
    15    18    22    1
    16    22    23    1
    17     2     3   ar
    18     3     4   ar
    19     4    24    1
    20    24    25    3
    21     4     5   ar
    22     5     6   ar
    23     6    26    1
    24    26    27    1
    25    27    28    1
    26    28    29    1
    27     6     1   ar
    28    23    15    1
    29    21    18    1
    30     8    11    1
    31    12    13    1
    32    29    30    1
@<TRIPOS>MOLECULE
*****
 30 32 0 0 0
SMALL
GASTEIGER

@<TRIPOS>ATOM
      1 C         140.3933  141.4754  166.1244 C.ar    1  UNL1        0.1377
      2 C         141.8792  141.4593  166.3288 C.ar    1  UNL1        0.1397
      3 N         142.7508  142.4176  165.5725 N.ar    1  UNL1       -0.2027
      4 C         142.1364  143.3920  164.6117 C.ar    1  UNL1        0.2367
      5 N         140.6505  143.4081  164.4072 N.ar    1  UNL1       -0.1828
      6 C         139.7789  142.4498  165.1636 C.ar    1  UNL1        0.2339
      7 C         137.7395  138.6267  166.8941 C.3     1  UNL1        0.1109
      8 N         138.6110  139.5850  166.1378 N.am    1  UNL1       -0.2990
      9 C         139.5218  140.5171  166.8807 C.2     1  UNL1        0.2532
     10 O         139.5609  140.4908  168.3800 O.2     1  UNL1       -0.2699
     11 H         138.5853  139.6022  165.1538 H       1  UNL1        0.1498
     12 N         142.4936  140.4849  167.2896 N.pl3   1  UNL1       -0.3178
     13 H         142.5701  140.7160  168.2436 H       1  UNL1        0.1482
     14 C         142.9914  139.1585  166.7970 C.3     1  UNL1        0.0881
     15 C         143.0033  138.8608  165.3269 C.3     1  UNL1        0.0196
     16 C         141.8309  138.1744  164.6911 C.3     1  UNL1        0.0017
     17 C         141.8428  137.8767  163.2210 C.3     1  UNL1        0.0001
     18 C         143.0272  138.2654  162.3867 C.3     1  UNL1        0.0000
     19 C         142.0734  137.6159  161.4282 C.3     1  UNL1        0.0000
     20 C         143.0440  137.8444  160.3075 C.3     1  UNL1        0.0000
     21 C         143.9978  138.4939  161.2660 C.3     1  UNL1        0.0000
     22 C         144.1996  138.9519  163.0224 C.3     1  UNL1        0.0001
     23 C         144.1877  139.2496  164.4925 C.3     1  UNL1        0.0017
     24 C         143.0079  144.3503  163.8554 C.1     1  UNL1        0.1401
     25 N         143.8795  145.3086  163.0990 N.1     1  UNL1       -0.1876
     26 O         138.2930  142.4659  164.9591 O.3     1  UNL1       -0.4573
     27 C         137.7150  142.0866  163.6280 C.3     1  UNL1        0.2387
     28 C         137.8308  143.0266  162.4647 C.3     1  UNL1        0.1848
     29 O         137.4316  144.4642  162.6196 O.3     1  UNL1       -0.3784
     30 H         136.4763  144.5192  162.7783 H       1  UNL1        0.2106
@<TRIPOS>BOND
     1     7     8    1
     2     8     9   am
     3     9    10    2
     4     9     1    1
     5     1     2   ar
     6     2    12    1
     7    12    14    1
     8    14    15    1
     9    15    16    1
    10    16    17    1
    11    17    18    1
    12    18    19    1
    13    19    20    1
    14    20    21    1
    15    18    22    1
    16    22    23    1
    17     2     3   ar
    18     3     4   ar
    19     4    24    1
    20    24    25    3
    21     4     5   ar
    22     5     6   ar
    23     6    26    1
    24    26    27    1
    25    27    28    1
    26    28    29    1
    27     6     1   ar
    28    23    15    1
    29    21    18    1
    30     8    11    1
    31    12    13    1
    32    29    30    1
@<TRIPOS>MOLECULE
*****
 30 32 0 0 0
SMALL
GASTEIGER

@<TRIPOS>ATOM
      1 C         143.1534  138.7818  164.5087 C.ar    1  UNL1        0.1377
      2 C         142.0403  137.9801  163.9017 C.ar    1  UNL1        0.1397
      3 N         141.9930  137.7660  162.4178 N.ar    1  UNL1       -0.2027
      4 C         143.0587  138.3535  161.5409 C.ar    1  UNL1        0.2367
      5 N         144.1718  139.1552  162.1478 N.ar    1  UNL1       -0.1828
      6 C         144.2191  139.3694  163.6317 C.ar    1  UNL1        0.2339
      7 C         142.5541  140.3919  168.0861 C.3     1  UNL1        0.1109
      8 N         142.5067  140.1778  166.6023 N.am    1  UNL1       -0.2990
      9 C         143.2008  138.9960  165.9925 C.2     1  UNL1        0.2532
     10 O         143.9421  138.0284  166.8667 O.2     1  UNL1       -0.2699
     11 H         142.0201  140.8128  166.0286 H       1  UNL1        0.1498
     12 N         140.9746  137.3926  164.7786 N.pl3   1  UNL1       -0.3178
     13 H         141.2225  136.8009  165.5254 H       1  UNL1        0.1482
     14 C         139.5313  137.7065  164.5178 C.3     1  UNL1        0.0881
     15 C         139.1063  139.1218  164.2600 C.3     1  UNL1        0.0196
     16 C         138.6268  139.5244  162.8969 C.3     1  UNL1        0.0017
     17 C         138.2019  140.9396  162.6391 C.3     1  UNL1        0.0001
     18 C         138.2563  141.9523  163.7443 C.3     1  UNL1        0.0000
     19 C         137.7378  142.7040  162.5542 C.3     1  UNL1        0.0000
     20 C         137.6553  143.9538  163.3797 C.3     1  UNL1        0.0000
     21 C         138.1738  143.2021  164.5697 C.3     1  UNL1        0.0000
     22 C         138.7358  141.5497  165.1074 C.3     1  UNL1        0.0001
     23 C         139.1608  140.1344  165.3652 C.3     1  UNL1        0.0017
     24 C         143.0114  138.1394  160.0570 C.1     1  UNL1        0.1401
     25 N         142.9641  137.9253  158.5731 N.1     1  UNL1       -0.1876
     26 O         145.3322  140.1711  164.2386 O.3     1  UNL1       -0.4573
     27 C         145.2337  141.6667  164.2973 C.3     1  UNL1        0.2387
     28 C         144.9230  142.4472  163.0546 C.3     1  UNL1        0.1848
     29 O         145.6019  142.1015  161.7625 O.3     1  UNL1       -0.3784
     30 H         146.5513  142.2857  161.8367 H       1  UNL1        0.2106
@<TRIPOS>BOND
     1     7     8    1
     2     8     9   am
     3     9    10    2
     4     9     1    1
     5     1     2   ar
     6     2    12    1
     7    12    14    1
     8    14    15    1
     9    15    16    1
    10    16    17    1
    11    17    18    1
    12    18    19    1
    13    19    20    1
    14    20    21    1
    15    18    22    1
    16    22    23    1
    17     2     3   ar
    18     3     4   ar
    19     4    24    1
    20    24    25    3
    21     4     5   ar
    22     5     6   ar
    23     6    26    1
    24    26    27    1
    25    27    28    1
    26    28    29    1
    27     6     1   ar
    28    23    15    1
    29    21    18    1
    30     8    11    1
    31    12    13    1
    32    29    30    1
@<TRIPOS>MOLECULE
*****
 30 32 0 0 0
SMALL
GASTEIGER

@<TRIPOS>ATOM
      1 C         141.0594  143.5719  161.5307 C.ar    1  UNL1        0.1377
      2 C         142.5343  143.7991  161.3787 C.ar    1  UNL1        0.1397
      3 N         143.3316  142.9450  160.4380 N.ar    1  UNL1       -0.2027
      4 C         142.6541  141.8638  159.6494 C.ar    1  UNL1        0.2367
      5 N         141.1792  141.6366  159.8015 N.ar    1  UNL1       -0.1828
      6 C         140.3818  142.4907  160.7421 C.ar    1  UNL1        0.2339
      7 C         138.6435  144.6408  164.4923 C.3     1  UNL1        0.1109
      8 N         139.4408  143.7868  163.5517 N.am    1  UNL1       -0.2990
      9 C         140.2620  144.4260  162.4714 C.2     1  UNL1        0.2532
     10 O         140.2860  145.9193  162.3318 O.2     1  UNL1       -0.2699
     11 H         139.4251  142.8067  163.6433 H       1  UNL1        0.1498
     12 N         143.2118  144.8803  162.1673 N.pl3   1  UNL1       -0.3178
     13 H         143.1361  145.8193  161.8812 H       1  UNL1        0.1482
     14 C         144.0047  144.5309  163.3917 C.3     1  UNL1        0.0881
     15 C         143.9141  143.1523  163.9758 C.3     1  UNL1        0.0196
     16 C         144.9284  142.1118  163.6036 C.3     1  UNL1        0.0017
     17 C         144.8377  140.7332  164.1877 C.3     1  UNL1        0.0001
     18 C         143.7327  140.3950  165.1440 C.3     1  UNL1        0.0000
     19 C         144.5339  139.1334  165.0147 C.3     1  UNL1        0.0000
     20 C         143.6045  138.4453  165.9702 C.3     1  UNL1        0.0000
     21 C         142.8034  139.7069  166.0995 C.3     1  UNL1        0.0000
     22 C         142.7184  141.4355  165.5163 C.3     1  UNL1        0.0001
     23 C         142.8091  142.8141  164.9321 C.3     1  UNL1        0.0017
     24 C         143.4514  141.0097  158.7088 C.1     1  UNL1        0.1401
     25 N         144.2487  140.1556  157.7682 N.1     1  UNL1       -0.1876
     26 O         138.9070  142.2636  160.8941 O.3     1  UNL1       -0.4573
     27 C         138.3873  140.8904  161.2015 C.3     1  UNL1        0.2387
     28 C         137.8309  140.5860  162.5608 C.3     1  UNL1        0.1848
     29 O         136.6535  141.3574  163.0792 O.3     1  UNL1       -0.3784
     30 H         136.9071  142.2842  163.2115 H       1  UNL1        0.2106
@<TRIPOS>BOND
     1     7     8    1
     2     8     9   am
     3     9    10    2
     4     9     1    1
     5     1     2   ar
     6     2    12    1
     7    12    14    1
     8    14    15    1
     9    15    16    1
    10    16    17    1
    11    17    18    1
    12    18    19    1
    13    19    20    1
    14    20    21    1
    15    18    22    1
    16    22    23    1
    17     2     3   ar
    18     3     4   ar
    19     4    24    1
    20    24    25    3
    21     4     5   ar
    22     5     6   ar
    23     6    26    1
    24    26    27    1
    25    27    28    1
    26    28    29    1
    27     6     1   ar
    28    23    15    1
    29    21    18    1
    30     8    11    1
    31    12    13    1
    32    29    30    1
@<TRIPOS>MOLECULE
*****
 30 32 0 0 0
SMALL
GASTEIGER

@<TRIPOS>ATOM
      1 C         144.3537  143.0150  163.8224 C.ar    1  UNL1        0.1377
      2 C         143.7404  144.0418  162.9170 C.ar    1  UNL1        0.1397
      3 N         143.8376  143.8832  161.4287 N.ar    1  UNL1       -0.2027
      4 C         144.5481  142.6977  160.8456 C.ar    1  UNL1        0.2367
      5 N         145.1613  141.6709  161.7509 N.ar    1  UNL1       -0.1828
      6 C         145.0641  141.8296  163.2394 C.ar    1  UNL1        0.2339
      7 C         143.3395  142.3679  167.6043 C.3     1  UNL1        0.1109
      8 N         143.4368  142.2092  166.1160 N.am    1  UNL1       -0.2990
      9 C         144.2564  143.1737  165.3108 C.2     1  UNL1        0.2532
     10 O         144.9788  144.2967  165.9942 O.2     1  UNL1       -0.2699
     11 H         142.9627  141.4721  165.6675 H       1  UNL1        0.1498
     12 N         143.0300  145.2273  163.5001 N.pl3   1  UNL1       -0.3178
     13 H         143.5471  145.9933  163.8393 H       1  UNL1        0.1482
     14 C         141.5316  145.2456  163.5665 C.3     1  UNL1        0.0881
     15 C         140.7787  143.9841  163.8695 C.3     1  UNL1        0.0196
     16 C         140.3145  143.1005  162.7499 C.3     1  UNL1        0.0017
     17 C         139.5616  141.8389  163.0529 C.3     1  UNL1        0.0001
     18 C         139.2730  141.4611  164.4755 C.3     1  UNL1        0.0000
     19 C         138.6689  140.3625  163.6519 C.3     1  UNL1        0.0000
     20 C         138.2083  139.6770  164.9041 C.3     1  UNL1        0.0000
     21 C         138.8124  140.7755  165.7277 C.3     1  UNL1        0.0000
     22 C         139.7373  142.3447  165.5951 C.3     1  UNL1        0.0001
     23 C         140.4901  143.6063  165.2921 C.3     1  UNL1        0.0017
     24 C         144.6453  142.5390  159.3572 C.1     1  UNL1        0.1401
     25 N         144.7425  142.3804  157.8687 N.1     1  UNL1       -0.1876
     26 O         145.6773  140.8028  164.1447 O.3     1  UNL1       -0.4573
     27 C         144.9872  139.4893  164.3651 C.3     1  UNL1        0.2387
     28 C         144.0214  138.9686  163.3423 C.3     1  UNL1        0.1848
     29 O         144.5045  138.6124  161.9676 O.3     1  UNL1       -0.3784
     30 H         144.8058  139.4145  161.5128 H       1  UNL1        0.2106
@<TRIPOS>BOND
     1     7     8    1
     2     8     9   am
     3     9    10    2
     4     9     1    1
     5     1     2   ar
     6     2    12    1
     7    12    14    1
     8    14    15    1
     9    15    16    1
    10    16    17    1
    11    17    18    1
    12    18    19    1
    13    19    20    1
    14    20    21    1
    15    18    22    1
    16    22    23    1
    17     2     3   ar
    18     3     4   ar
    19     4    24    1
    20    24    25    3
    21     4     5   ar
    22     5     6   ar
    23     6    26    1
    24    26    27    1
    25    27    28    1
    26    28    29    1
    27     6     1   ar
    28    23    15    1
    29    21    18    1
    30     8    11    1
    31    12    13    1
    32    29    30    1
@<TRIPOS>MOLECULE
*****
 30 32 0 0 0
SMALL
GASTEIGER

@<TRIPOS>ATOM
      1 C         140.5879  144.1871  161.8198 C.ar    1  UNL1        0.1377
      2 C         140.1798  143.4392  160.5851 C.ar    1  UNL1        0.1397
      3 N         141.2184  143.0038  159.5944 N.ar    1  UNL1       -0.2027
      4 C         142.6651  143.3161  159.8381 C.ar    1  UNL1        0.2367
      5 N         143.0732  144.0639  161.0727 N.ar    1  UNL1       -0.1828
      6 C         142.0346  144.4994  162.0635 C.ar    1  UNL1        0.2339
      7 C         138.7333  144.8354  165.2679 C.3     1  UNL1        0.1109
      8 N         139.7719  144.3999  164.2772 N.am    1  UNL1       -0.2990
      9 C         139.5493  144.6225  162.8105 C.2     1  UNL1        0.2532
     10 O         138.2882  145.2806  162.3347 O.2     1  UNL1       -0.2699
     11 H         140.5996  143.9680  164.5895 H       1  UNL1        0.1498
     12 N         138.7331  143.1269  160.3414 N.pl3   1  UNL1       -0.3178
     13 H         138.0950  143.8557  160.1655 H       1  UNL1        0.1482
     14 C         138.2585  141.7042  160.3655 C.3     1  UNL1        0.0881
     15 C         138.3315  140.9107  161.6364 C.3     1  UNL1        0.0196
     16 C         137.8960  141.5281  162.9321 C.3     1  UNL1        0.0017
     17 C         137.9690  140.7346  164.2030 C.3     1  UNL1        0.0001
     18 C         138.4776  139.3237  164.1781 C.3     1  UNL1        0.0000
     19 C         138.1437  139.5907  165.6159 C.3     1  UNL1        0.0000
     20 C         138.5808  138.2015  165.9754 C.3     1  UNL1        0.0000
     21 C         138.9147  137.9345  164.5375 C.3     1  UNL1        0.0000
     22 C         138.9131  138.7063  162.8823 C.3     1  UNL1        0.0001
     23 C         138.8401  139.4998  161.6115 C.3     1  UNL1        0.0017
     24 C         143.7037  142.8806  158.8474 C.1     1  UNL1        0.1401
     25 N         144.7423  142.4451  157.8566 N.1     1  UNL1       -0.1876
     26 O         142.4428  145.2472  163.2981 O.3     1  UNL1       -0.4573
     27 C         143.6278  144.7888  164.0953 C.3     1  UNL1        0.2387
     28 C         143.5714  143.4897  164.8432 C.3     1  UNL1        0.1848
     29 O         142.2499  142.9383  165.2900 O.3     1  UNL1       -0.3784
     30 H         141.8629  143.5266  165.9571 H       1  UNL1        0.2106
@<TRIPOS>BOND
     1     7     8    1
     2     8     9   am
     3     9    10    2
     4     9     1    1
     5     1     2   ar
     6     2    12    1
     7    12    14    1
     8    14    15    1
     9    15    16    1
    10    16    17    1
    11    17    18    1
    12    18    19    1
    13    19    20    1
    14    20    21    1
    15    18    22    1
    16    22    23    1
    17     2     3   ar
    18     3     4   ar
    19     4    24    1
    20    24    25    3
    21     4     5   ar
    22     5     6   ar
    23     6    26    1
    24    26    27    1
    25    27    28    1
    26    28    29    1
    27     6     1   ar
    28    23    15    1
    29    21    18    1
    30     8    11    1
    31    12    13    1
    32    29    30    1
