@<TRIPOS>MOLECULE
*****
 31 34 0 0 0
SMALL
GASTEIGER

@<TRIPOS>ATOM
      1 C         139.2580  142.7198  164.1679 C.ar    1  UNL1        0.0522
      2 C         138.5507  142.6477  162.8471 C.ar    1  UNL1        0.0853
      3 C         137.7269  141.4424  162.5024 C.ar    1  UNL1        0.1045
      4 N         137.6104  140.3094  163.4784 N.ar    1  UNL1       -0.2436
      5 C         138.3177  140.3816  164.7992 C.ar    1  UNL1        0.0825
      6 C         138.2013  139.2485  165.7752 C.ar    1  UNL1        0.0191
      7 C         138.9086  139.3207  167.0960 C.ar    1  UNL1        0.0016
      8 C         139.7323  140.5259  167.4408 C.ar    1  UNL1        0.0016
      9 C         139.8488  141.6590  166.4648 C.ar    1  UNL1        0.0028
     10 C         139.1415  141.5868  165.1440 C.ar    1  UNL1        0.0310
     11 C         140.4397  140.5981  168.7616 C.ar    1  UNL1        0.0192
     12 C         141.8924  140.2367  168.8551 C.ar    1  UNL1        0.0031
     13 C         142.5997  140.3089  170.1760 C.ar    1  UNL1        0.0207
     14 C         141.8542  140.7424  171.4033 C.ar    1  UNL1        0.0989
     15 N         140.4013  141.1038  171.3097 N.ar    1  UNL1       -0.2423
     16 C         139.6941  141.0316  169.9889 C.ar    1  UNL1        0.0988
     17 C         138.6671  143.7807  161.8710 C.2     1  UNL1        0.2455
     18 N         138.9605  143.4996  160.4271 N.am    1  UNL1       -0.3252
     19 O         138.4902  145.1948  162.3389 O.2     1  UNL1       -0.2703
     20 H         139.0766  142.5714  160.1201 H       1  UNL1        0.1453
     21 H         139.0369  144.2432  159.7865 H       1  UNL1        0.1453
     22 N         140.0817  143.9251  164.5127 N.pl3   1  UNL1       -0.3292
     23 H         139.6961  144.6435  165.0644 H       1  UNL1        0.1471
     24 C         141.9991  145.3415  163.4795 C.3     1  UNL1        0.0278
     25 C         141.4931  144.0357  164.0168 C.3     1  UNL1        0.1117
     26 C         142.3984  142.8404  164.0582 C.ar    1  UNL1        0.0978
     27 C         143.2174  142.3949  165.2332 C.ar    1  UNL1        0.0383
     28 C         143.9689  141.1599  164.8331 C.ar    1  UNL1        0.0964
     29 N         143.6143  140.8421  163.4106 N.ar    1  UNL1       -0.2476
     30 C         144.1383  139.6883  162.6080 C.3     1  UNL1        0.1537
     31 N         142.6437  141.8807  162.9317 N.ar    1  UNL1       -0.1719
@<TRIPOS>BOND
     1    25    24    1
     2    25    22    1
     3    22     1    1
     4     1     2   ar
     5     2    17    1
     6    17    18   am
     7    17    19    2
     8     2     3   ar
     9     3     4   ar
    10     4     5   ar
    11     5     6   ar
    12     6     7   ar
    13     7     8   ar
    14     8    11    1
    15    11    12   ar
    16    12    13   ar
    17    13    14   ar
    18    14    15   ar
    19    15    16   ar
    20     8     9   ar
    21     9    10   ar
    22    25    26    1
    23    26    27   ar
    24    27    28   ar
    25    28    29   ar
    26    29    30    1
    27    29    31   ar
    28    10     1   ar
    29    31    26   ar
    30    10     5   ar
    31    16    11   ar
    32    22    23    1
    33    18    20    1
    34    18    21    1
@<TRIPOS>MOLECULE
*****
 31 34 0 0 0
SMALL
GASTEIGER

@<TRIPOS>ATOM
      1 C         139.6403  139.2040  163.8480 C.ar    1  UNL1        0.0522
      2 C         140.0606  138.2974  162.7293 C.ar    1  UNL1        0.0853
      3 C         141.3610  137.5547  162.8141 C.ar    1  UNL1        0.1045
      4 N         142.2412  137.7186  164.0175 N.ar    1  UNL1       -0.2436
      5 C         141.8210  138.6252  165.1362 C.ar    1  UNL1        0.0825
      6 C         142.7012  138.7891  166.3397 C.ar    1  UNL1        0.0191
      7 C         142.2810  139.6957  167.4583 C.ar    1  UNL1        0.0016
      8 C         140.9805  140.4384  167.3736 C.ar    1  UNL1        0.0016
      9 C         140.1003  140.2745  166.1701 C.ar    1  UNL1        0.0028
     10 C         140.5205  139.3679  165.0515 C.ar    1  UNL1        0.0310
     11 C         140.5603  141.3450  168.4923 C.ar    1  UNL1        0.0192
     12 C         140.9988  142.7794  168.5002 C.ar    1  UNL1        0.0031
     13 C         140.5786  143.6860  169.6190 C.ar    1  UNL1        0.0207
     14 C         139.7198  143.1582  170.7298 C.ar    1  UNL1        0.0989
     15 N         139.2813  141.7237  170.7218 N.ar    1  UNL1       -0.2423
     16 C         139.7015  140.8171  169.6031 C.ar    1  UNL1        0.0988
     17 C         139.1803  138.1334  161.5258 C.2     1  UNL1        0.2455
     18 N         139.7524  138.3029  160.1495 N.am    1  UNL1       -0.3252
     19 O         137.7281  137.8000  161.6985 O.2     1  UNL1       -0.2703
     20 H         140.7055  138.5217  160.0362 H       1  UNL1        0.1453
     21 H         139.1747  138.1953  159.3597 H       1  UNL1        0.1453
     22 N         138.3398  139.9466  163.7632 N.pl3   1  UNL1       -0.3292
     23 H         137.5357  139.5825  164.1990 H       1  UNL1        0.1471
     24 C         137.5182  141.3184  161.7154 C.3     1  UNL1        0.0278
     25 C         138.2646  141.2442  163.0144 C.3     1  UNL1        0.1117
     26 C         138.9358  142.4677  163.5646 C.ar    1  UNL1        0.0978
     27 C         138.3874  143.3707  164.6293 C.ar    1  UNL1        0.0383
     28 C         139.3859  144.4640  164.8695 C.ar    1  UNL1        0.0964
     29 N         140.5515  144.2367  163.9531 N.ar    1  UNL1       -0.2476
     30 C         141.7796  145.0928  163.8596 C.3     1  UNL1        0.1537
     31 N         140.2734  143.0029  163.1466 N.ar    1  UNL1       -0.1719
@<TRIPOS>BOND
     1    25    24    1
     2    25    22    1
     3    22     1    1
     4     1     2   ar
     5     2    17    1
     6    17    18   am
     7    17    19    2
     8     2     3   ar
     9     3     4   ar
    10     4     5   ar
    11     5     6   ar
    12     6     7   ar
    13     7     8   ar
    14     8    11    1
    15    11    12   ar
    16    12    13   ar
    17    13    14   ar
    18    14    15   ar
    19    15    16   ar
    20     8     9   ar
    21     9    10   ar
    22    25    26    1
    23    26    27   ar
    24    27    28   ar
    25    28    29   ar
    26    29    30    1
    27    29    31   ar
    28    10     1   ar
    29    31    26   ar
    30    10     5   ar
    31    16    11   ar
    32    22    23    1
    33    18    20    1
    34    18    21    1
@<TRIPOS>MOLECULE
*****
 31 34 0 0 0
SMALL
GASTEIGER

@<TRIPOS>ATOM
      1 C         141.3377  139.2823  163.8743 C.ar    1  UNL1        0.0522
      2 C         141.0329  138.4919  162.6365 C.ar    1  UNL1        0.0853
      3 C         139.7748  137.6791  162.5564 C.ar    1  UNL1        0.1045
      4 N         138.8214  137.6567  163.7142 N.ar    1  UNL1       -0.2436
      5 C         139.1261  138.4472  164.9521 C.ar    1  UNL1        0.0825
      6 C         138.1727  138.4248  166.1099 C.ar    1  UNL1        0.0191
      7 C         138.4775  139.2152  167.3478 C.ar    1  UNL1        0.0016
      8 C         139.7357  140.0280  167.4278 C.ar    1  UNL1        0.0016
      9 C         140.6890  140.0504  166.2701 C.ar    1  UNL1        0.0028
     10 C         140.3843  139.2599  165.0322 C.ar    1  UNL1        0.0310
     11 C         140.0404  140.8184  168.6658 C.ar    1  UNL1        0.0192
     12 C         140.3660  142.2789  168.5619 C.ar    1  UNL1        0.0031
     13 C         140.6707  143.0694  169.7998 C.ar    1  UNL1        0.0207
     14 C         140.6499  142.3992  171.1416 C.ar    1  UNL1        0.0989
     15 N         140.3243  140.9386  171.2455 N.ar    1  UNL1       -0.2423
     16 C         140.0196  140.1482  170.0076 C.ar    1  UNL1        0.0988
     17 C         141.9863  138.5142  161.4786 C.2     1  UNL1        0.2455
     18 N         142.8538  137.3230  161.1983 N.am    1  UNL1       -0.3252
     19 O         142.0723  139.7277  160.6012 O.2     1  UNL1       -0.2703
     20 H         142.7973  136.5265  161.7742 H       1  UNL1        0.1453
     21 H         143.4795  137.3377  160.4384 H       1  UNL1        0.1453
     22 N         142.5959  140.0951  163.9544 N.pl3   1  UNL1       -0.3292
     23 H         143.4103  139.7042  164.3458 H       1  UNL1        0.1471
     24 C         143.7895  141.9992  162.6507 C.3     1  UNL1        0.0278
     25 C         142.6131  141.5034  163.4382 C.3     1  UNL1        0.1117
     26 C         141.4539  142.4158  163.7094 C.ar    1  UNL1        0.0978
     27 C         141.3148  143.3398  164.8829 C.ar    1  UNL1        0.0383
     28 C         140.0051  144.0595  164.7536 C.ar    1  UNL1        0.0964
     29 N         139.3347  143.5805  163.5002 N.ar    1  UNL1       -0.2476
     30 C         138.0029  144.0370  162.9829 C.3     1  UNL1        0.1537
     31 N         140.2301  142.5646  162.8548 N.ar    1  UNL1       -0.1719
@<TRIPOS>BOND
     1    25    24    1
     2    25    22    1
     3    22     1    1
     4     1     2   ar
     5     2    17    1
     6    17    18   am
     7    17    19    2
     8     2     3   ar
     9     3     4   ar
    10     4     5   ar
    11     5     6   ar
    12     6     7   ar
    13     7     8   ar
    14     8    11    1
    15    11    12   ar
    16    12    13   ar
    17    13    14   ar
    18    14    15   ar
    19    15    16   ar
    20     8     9   ar
    21     9    10   ar
    22    25    26    1
    23    26    27   ar
    24    27    28   ar
    25    28    29   ar
    26    29    30    1
    27    29    31   ar
    28    10     1   ar
    29    31    26   ar
    30    10     5   ar
    31    16    11   ar
    32    22    23    1
    33    18    20    1
    34    18    21    1
@<TRIPOS>MOLECULE
*****
 31 34 0 0 0
SMALL
GASTEIGER

@<TRIPOS>ATOM
      1 C         139.9460  143.4936  163.4283 C.ar    1  UNL1        0.0522
      2 C         139.2431  143.9131  162.1714 C.ar    1  UNL1        0.0853
      3 C         138.0615  143.1326  161.6766 C.ar    1  UNL1        0.1045
      4 N         137.5829  141.9326  162.4388 N.ar    1  UNL1       -0.2436
      5 C         138.2858  141.5131  163.6958 C.ar    1  UNL1        0.0825
      6 C         137.8071  140.3131  164.4580 C.ar    1  UNL1        0.0191
      7 C         138.5100  139.8937  165.7149 C.ar    1  UNL1        0.0016
      8 C         139.6916  140.6742  166.2097 C.ar    1  UNL1        0.0016
      9 C         140.1702  141.8741  165.4475 C.ar    1  UNL1        0.0028
     10 C         139.4673  142.2936  164.1906 C.ar    1  UNL1        0.0310
     11 C         140.3945  140.2546  167.4667 C.ar    1  UNL1        0.0192
     12 C         141.8598  139.9358  167.4359 C.ar    1  UNL1        0.0031
     13 C         142.5627  139.5163  168.6929 C.ar    1  UNL1        0.0207
     14 C         141.8002  139.4156  169.9807 C.ar    1  UNL1        0.0989
     15 N         140.3347  139.7345  170.0114 N.ar    1  UNL1       -0.2423
     16 C         139.6319  140.1540  168.7545 C.ar    1  UNL1        0.0988
     17 C         139.7217  145.1131  161.4091 C.2     1  UNL1        0.2455
     18 N         139.9570  145.0177  159.9308 N.am    1  UNL1       -0.3252
     19 O         139.9650  146.4084  162.1252 O.2     1  UNL1       -0.2703
     20 H         139.7973  144.1675  159.4608 H       1  UNL1        0.1453
     21 H         140.2712  145.8053  159.4305 H       1  UNL1        0.1453
     22 N         141.1275  144.2741  163.9231 N.pl3   1  UNL1       -0.3292
     23 H         140.9915  145.0615  164.4982 H       1  UNL1        0.1471
     24 C         143.6437  144.0181  164.5175 C.3     1  UNL1        0.0278
     25 C         142.5163  143.8548  163.5416 C.3     1  UNL1        0.1117
     26 C         142.7777  143.2723  162.1843 C.ar    1  UNL1        0.0978
     27 C         142.9662  141.8177  161.8705 C.ar    1  UNL1        0.0383
     28 C         143.2015  141.6885  160.3947 C.ar    1  UNL1        0.0964
     29 N         143.1584  143.0633  159.7964 N.ar    1  UNL1       -0.2476
     30 C         143.3445  143.4002  158.3466 C.3     1  UNL1        0.1537
     31 N         142.8965  144.0422  160.9024 N.ar    1  UNL1       -0.1719
@<TRIPOS>BOND
     1    25    24    1
     2    25    22    1
     3    22     1    1
     4     1     2   ar
     5     2    17    1
     6    17    18   am
     7    17    19    2
     8     2     3   ar
     9     3     4   ar
    10     4     5   ar
    11     5     6   ar
    12     6     7   ar
    13     7     8   ar
    14     8    11    1
    15    11    12   ar
    16    12    13   ar
    17    13    14   ar
    18    14    15   ar
    19    15    16   ar
    20     8     9   ar
    21     9    10   ar
    22    25    26    1
    23    26    27   ar
    24    27    28   ar
    25    28    29   ar
    26    29    30    1
    27    29    31   ar
    28    10     1   ar
    29    31    26   ar
    30    10     5   ar
    31    16    11   ar
    32    22    23    1
    33    18    20    1
    34    18    21    1
@<TRIPOS>MOLECULE
*****
 31 34 0 0 0
SMALL
GASTEIGER

@<TRIPOS>ATOM
      1 C         141.7567  140.0742  167.8479 C.ar    1  UNL1        0.0522
      2 C         141.7410  140.2931  169.3317 C.ar    1  UNL1        0.0853
      3 C         140.4590  140.1509  170.0973 C.ar    1  UNL1        0.1045
      4 N         139.1926  139.7900  169.3791 N.ar    1  UNL1       -0.2436
      5 C         139.2082  139.5711  167.8952 C.ar    1  UNL1        0.0825
      6 C         137.9418  139.2102  167.1769 C.ar    1  UNL1        0.0191
      7 C         137.9575  138.9914  165.6931 C.ar    1  UNL1        0.0016
      8 C         139.2395  139.1335  164.9275 C.ar    1  UNL1        0.0016
      9 C         140.5059  139.4944  165.6457 C.ar    1  UNL1        0.0028
     10 C         140.4902  139.7133  167.1296 C.ar    1  UNL1        0.0310
     11 C         139.2551  138.9147  163.4436 C.ar    1  UNL1        0.0192
     12 C         140.4625  138.3141  162.7867 C.ar    1  UNL1        0.0031
     13 C         140.4781  138.0953  161.3028 C.ar    1  UNL1        0.0207
     14 C         139.2863  138.4770  160.4758 C.ar    1  UNL1        0.0989
     15 N         138.0789  139.0776  161.1328 N.ar    1  UNL1       -0.2423
     16 C         138.0633  139.2964  162.6166 C.ar    1  UNL1        0.0988
     17 C         143.0075  140.6540  170.0501 C.2     1  UNL1        0.2455
     18 N         143.5556  139.7426  171.1079 N.am    1  UNL1       -0.3252
     19 O         143.7257  141.9263  169.7106 O.2     1  UNL1       -0.2703
     20 H         143.0841  138.9076  171.3307 H       1  UNL1        0.1453
     21 H         144.3867  139.9795  171.5793 H       1  UNL1        0.1453
     22 N         143.0387  140.2164  167.0823 N.pl3   1  UNL1       -0.3292
     23 H         143.7532  139.5477  167.1902 H       1  UNL1        0.1471
     24 C         142.8186  142.7553  166.5767 C.3     1  UNL1        0.0278
     25 C         143.2322  141.3773  166.1523 C.3     1  UNL1        0.1117
     26 C         143.8392  141.1602  164.7979 C.ar    1  UNL1        0.0978
     27 C         145.0051  141.9093  164.2238 C.ar    1  UNL1        0.0383
     28 C         145.2733  141.3680  162.8509 C.ar    1  UNL1        0.0964
     29 N         144.2732  140.2843  162.5764 N.ar    1  UNL1       -0.2476
     30 C         144.1765  139.4716  161.3193 C.3     1  UNL1        0.1537
     31 N         143.3868  140.1558  163.7797 N.ar    1  UNL1       -0.1719
@<TRIPOS>BOND
     1    25    24    1
     2    25    22    1
     3    22     1    1
     4     1     2   ar
     5     2    17    1
     6    17    18   am
     7    17    19    2
     8     2     3   ar
     9     3     4   ar
    10     4     5   ar
    11     5     6   ar
    12     6     7   ar
    13     7     8   ar
    14     8    11    1
    15    11    12   ar
    16    12    13   ar
    17    13    14   ar
    18    14    15   ar
    19    15    16   ar
    20     8     9   ar
    21     9    10   ar
    22    25    26    1
    23    26    27   ar
    24    27    28   ar
    25    28    29   ar
    26    29    30    1
    27    29    31   ar
    28    10     1   ar
    29    31    26   ar
    30    10     5   ar
    31    16    11   ar
    32    22    23    1
    33    18    20    1
    34    18    21    1
@<TRIPOS>MOLECULE
*****
 31 34 0 0 0
SMALL
GASTEIGER

@<TRIPOS>ATOM
      1 C         143.4056  139.7720  163.3847 C.ar    1  UNL1        0.0522
      2 C         144.1230  140.0107  162.0892 C.ar    1  UNL1        0.0853
      3 C         144.8948  141.2801  161.8820 C.ar    1  UNL1        0.1045
      4 N         144.9491  142.3109  162.9703 N.ar    1  UNL1       -0.2436
      5 C         144.2317  142.0723  164.2659 C.ar    1  UNL1        0.0825
      6 C         144.2861  143.1031  165.3542 C.ar    1  UNL1        0.0191
      7 C         143.5687  142.8644  166.6497 C.ar    1  UNL1        0.0016
      8 C         142.7970  141.5950  166.8569 C.ar    1  UNL1        0.0016
      9 C         142.7426  140.5642  165.7686 C.ar    1  UNL1        0.0028
     10 C         143.4600  140.8028  164.4731 C.ar    1  UNL1        0.0310
     11 C         142.0796  141.3564  168.1525 C.ar    1  UNL1        0.0192
     12 C         141.1964  140.1543  168.3105 C.ar    1  UNL1        0.0031
     13 C         140.4790  139.9157  169.6060 C.ar    1  UNL1        0.0207
     14 C         140.6448  140.8792  170.7437 C.ar    1  UNL1        0.0989
     15 N         141.5281  142.0813  170.5857 N.ar    1  UNL1       -0.2423
     16 C         142.2454  142.3199  169.2901 C.ar    1  UNL1        0.0988
     17 C         144.0687  138.9798  161.0008 C.2     1  UNL1        0.2455
     18 N         143.8877  139.4048  159.5737 N.am    1  UNL1       -0.3252
     19 O         144.1953  137.5241  161.3396 O.2     1  UNL1       -0.2703
     20 H         143.8046  140.3603  159.3514 H       1  UNL1        0.1453
     21 H         143.8520  138.7283  158.8594 H       1  UNL1        0.1453
     22 N         142.6339  138.5026  163.5919 N.pl3   1  UNL1       -0.3292
     23 H         143.0754  137.7174  163.9891 H       1  UNL1        0.1471
     24 C         140.8087  137.8855  161.8489 C.3     1  UNL1        0.0278
     25 C         141.1894  138.4296  163.1939 C.3     1  UNL1        0.1117
     26 C         140.1258  138.9006  164.1409 C.ar    1  UNL1        0.0978
     27 C         139.4901  140.2592  164.1477 C.ar    1  UNL1        0.0383
     28 C         138.4826  140.2940  165.2584 C.ar    1  UNL1        0.0964
     29 N         138.4956  138.9569  165.9381 N.ar    1  UNL1       -0.2476
     30 C         137.6427  138.5520  167.1037 C.3     1  UNL1        0.1537
     31 N         139.5111  138.0956  165.2475 N.ar    1  UNL1       -0.1719
@<TRIPOS>BOND
     1    25    24    1
     2    25    22    1
     3    22     1    1
     4     1     2   ar
     5     2    17    1
     6    17    18   am
     7    17    19    2
     8     2     3   ar
     9     3     4   ar
    10     4     5   ar
    11     5     6   ar
    12     6     7   ar
    13     7     8   ar
    14     8    11    1
    15    11    12   ar
    16    12    13   ar
    17    13    14   ar
    18    14    15   ar
    19    15    16   ar
    20     8     9   ar
    21     9    10   ar
    22    25    26    1
    23    26    27   ar
    24    27    28   ar
    25    28    29   ar
    26    29    30    1
    27    29    31   ar
    28    10     1   ar
    29    31    26   ar
    30    10     5   ar
    31    16    11   ar
    32    22    23    1
    33    18    20    1
    34    18    21    1
@<TRIPOS>MOLECULE
*****
 31 34 0 0 0
SMALL
GASTEIGER

@<TRIPOS>ATOM
      1 C         139.4590  139.2672  163.7546 C.ar    1  UNL1        0.0522
      2 C         139.8420  138.3916  162.5985 C.ar    1  UNL1        0.0853
      3 C         141.1384  137.6375  162.6261 C.ar    1  UNL1        0.1045
      4 N         142.0517  137.7591  163.8097 N.ar    1  UNL1       -0.2436
      5 C         141.6687  138.6347  164.9659 C.ar    1  UNL1        0.0825
      6 C         142.5820  138.7563  166.1495 C.ar    1  UNL1        0.0191
      7 C         142.1990  139.6319  167.3055 C.ar    1  UNL1        0.0016
      8 C         140.9026  140.3860  167.2780 C.ar    1  UNL1        0.0016
      9 C         139.9892  140.2644  166.0943 C.ar    1  UNL1        0.0028
     10 C         140.3723  139.3888  164.9383 C.ar    1  UNL1        0.0310
     11 C         140.5195  141.2616  168.4341 C.ar    1  UNL1        0.0192
     12 C         140.9529  142.6973  168.4634 C.ar    1  UNL1        0.0031
     13 C         140.5699  143.5730  169.6196 C.ar    1  UNL1        0.0207
     14 C         139.7534  143.0129  170.7463 C.ar    1  UNL1        0.0989
     15 N         139.3200  141.5771  170.7170 N.ar    1  UNL1       -0.2423
     16 C         139.7031  140.7015  169.5609 C.ar    1  UNL1        0.0988
     17 C         138.9287  138.2700  161.4148 C.2     1  UNL1        0.2455
     18 N         139.4809  138.3934  160.0256 N.am    1  UNL1       -0.3252
     19 O         137.4632  138.0250  161.6203 O.2     1  UNL1       -0.2703
     20 H         140.4428  138.5542  159.8908 H       1  UNL1        0.1453
     21 H         138.8815  138.3136  159.2487 H       1  UNL1        0.1453
     22 N         138.1626  140.0213  163.7270 N.pl3   1  UNL1       -0.3292
     23 H         137.3228  139.5654  163.9640 H       1  UNL1        0.1471
     24 C         137.6684  142.5032  164.3154 C.3     1  UNL1        0.0278
     25 C         138.1457  141.4700  163.3383 C.3     1  UNL1        0.1117
     26 C         138.6062  141.8855  161.9726 C.ar    1  UNL1        0.0978
     27 C         139.9685  142.4065  161.6221 C.ar    1  UNL1        0.0383
     28 C         139.9895  142.6960  160.1504 C.ar    1  UNL1        0.0964
     29 N         138.6403  142.3538  159.5913 N.ar    1  UNL1       -0.2476
     30 C         138.2198  142.4889  158.1578 C.3     1  UNL1        0.1537
     31 N         137.7853  141.8529  160.7175 N.ar    1  UNL1       -0.1719
@<TRIPOS>BOND
     1    25    24    1
     2    25    22    1
     3    22     1    1
     4     1     2   ar
     5     2    17    1
     6    17    18   am
     7    17    19    2
     8     2     3   ar
     9     3     4   ar
    10     4     5   ar
    11     5     6   ar
    12     6     7   ar
    13     7     8   ar
    14     8    11    1
    15    11    12   ar
    16    12    13   ar
    17    13    14   ar
    18    14    15   ar
    19    15    16   ar
    20     8     9   ar
    21     9    10   ar
    22    25    26    1
    23    26    27   ar
    24    27    28   ar
    25    28    29   ar
    26    29    30    1
    27    29    31   ar
    28    10     1   ar
    29    31    26   ar
    30    10     5   ar
    31    16    11   ar
    32    22    23    1
    33    18    20    1
    34    18    21    1
@<TRIPOS>MOLECULE
*****
 31 34 0 0 0
SMALL
GASTEIGER

@<TRIPOS>ATOM
      1 C         139.2189  140.3909  163.6184 C.ar    1  UNL1        0.0522
      2 C         138.4132  140.4212  162.3536 C.ar    1  UNL1        0.0853
      3 C         137.7065  141.6794  161.9444 C.ar    1  UNL1        0.1045
      4 N         137.8053  142.9073  162.8002 N.ar    1  UNL1       -0.2436
      5 C         138.6110  142.8771  164.0651 C.ar    1  UNL1        0.0825
      6 C         138.7099  144.1051  164.9209 C.ar    1  UNL1        0.0191
      7 C         139.5156  144.0748  166.1857 C.ar    1  UNL1        0.0016
      8 C         140.2224  142.8166  166.5949 C.ar    1  UNL1        0.0016
      9 C         140.1235  141.5887  165.7391 C.ar    1  UNL1        0.0028
     10 C         139.3178  141.6189  164.4742 C.ar    1  UNL1        0.0310
     11 C         141.0281  142.7864  167.8598 C.ar    1  UNL1        0.0192
     12 C         142.4239  142.2374  167.8470 C.ar    1  UNL1        0.0031
     13 C         143.2296  142.2071  169.1120 C.ar    1  UNL1        0.0207
     14 C         142.6394  142.7260  170.3897 C.ar    1  UNL1        0.0989
     15 N         141.2435  143.2750  170.4024 N.ar    1  UNL1       -0.2423
     16 C         140.4379  143.3052  169.1375 C.ar    1  UNL1        0.0988
     17 C         138.3143  139.1932  161.4977 C.2     1  UNL1        0.2455
     18 N         138.6525  139.2670  160.0382 N.am    1  UNL1       -0.3252
     19 O         137.8772  137.8915  162.1014 O.2     1  UNL1       -0.2703
     20 H         138.9394  140.1214  159.6420 H       1  UNL1        0.1453
     21 H         138.5876  138.4611  159.4765 H       1  UNL1        0.1453
     22 N         139.9257  139.1327  164.0275 N.pl3   1  UNL1       -0.3292
     23 H         139.5139  138.5291  164.6873 H       1  UNL1        0.1471
     24 C         141.4331  137.5237  162.6531 C.3     1  UNL1        0.0278
     25 C         141.2599  138.7943  163.4314 C.3     1  UNL1        0.1117
     26 C         142.4210  139.7263  163.6136 C.ar    1  UNL1        0.0978
     27 C         143.2359  139.8860  164.8627 C.ar    1  UNL1        0.0383
     28 C         144.2895  140.9208  164.5998 C.ar    1  UNL1        0.0964
     29 N         144.1258  141.4007  163.1881 N.ar    1  UNL1       -0.2476
     30 C         144.9688  142.4368  162.5057 C.3     1  UNL1        0.1537
     31 N         142.9709  140.6625  162.5785 N.ar    1  UNL1       -0.1719
@<TRIPOS>BOND
     1    25    24    1
     2    25    22    1
     3    22     1    1
     4     1     2   ar
     5     2    17    1
     6    17    18   am
     7    17    19    2
     8     2     3   ar
     9     3     4   ar
    10     4     5   ar
    11     5     6   ar
    12     6     7   ar
    13     7     8   ar
    14     8    11    1
    15    11    12   ar
    16    12    13   ar
    17    13    14   ar
    18    14    15   ar
    19    15    16   ar
    20     8     9   ar
    21     9    10   ar
    22    25    26    1
    23    26    27   ar
    24    27    28   ar
    25    28    29   ar
    26    29    30    1
    27    29    31   ar
    28    10     1   ar
    29    31    26   ar
    30    10     5   ar
    31    16    11   ar
    32    22    23    1
    33    18    20    1
    34    18    21    1
@<TRIPOS>MOLECULE
*****
 31 34 0 0 0
SMALL
GASTEIGER

@<TRIPOS>ATOM
      1 C         139.9249  141.3650  166.9867 C.ar    1  UNL1        0.0522
      2 C         139.5359  140.2681  167.9329 C.ar    1  UNL1        0.0853
      3 C         138.5845  139.1968  167.4888 C.ar    1  UNL1        0.1045
      4 N         138.0221  139.2225  166.0985 N.ar    1  UNL1       -0.2436
      5 C         138.4111  140.3194  165.1522 C.ar    1  UNL1        0.0825
      6 C         137.8487  140.3451  163.7619 C.ar    1  UNL1        0.0191
      7 C         138.2378  141.4420  162.8157 C.ar    1  UNL1        0.0016
      8 C         139.1892  142.5133  163.2598 C.ar    1  UNL1        0.0016
      9 C         139.7516  142.4876  164.6501 C.ar    1  UNL1        0.0028
     10 C         139.3625  141.3907  165.5963 C.ar    1  UNL1        0.0310
     11 C         139.5782  143.6103  162.3135 C.ar    1  UNL1        0.0192
     12 C         139.3679  145.0441  162.7003 C.ar    1  UNL1        0.0031
     13 C         139.7569  146.1411  161.7540 C.ar    1  UNL1        0.0207
     14 C         140.3562  145.8041  160.4209 C.ar    1  UNL1        0.0989
     15 N         140.5666  144.3701  160.0341 N.ar    1  UNL1       -0.2423
     16 C         140.1776  143.2733  160.9804 C.ar    1  UNL1        0.0988
     17 C         140.0983  140.2423  169.3233 C.2     1  UNL1        0.2455
     18 N         139.4156  141.0011  170.4226 N.am    1  UNL1       -0.3252
     19 O         141.3432  139.4579  169.6144 O.2     1  UNL1       -0.2703
     20 H         138.5985  141.5159  170.2315 H       1  UNL1        0.1453
     21 H         139.7847  140.9842  171.3351 H       1  UNL1        0.1453
     22 N         140.8763  142.4362  167.4308 N.pl3   1  UNL1       -0.3292
     23 H         140.5360  143.3285  167.6701 H       1  UNL1        0.1471
     24 C         143.0894  142.3881  168.7910 C.3     1  UNL1        0.0278
     25 C         142.3463  142.1479  167.5104 C.3     1  UNL1        0.1117
     26 C         143.0730  141.6194  166.3093 C.ar    1  UNL1        0.0978
     27 C         143.0361  140.2063  165.8077 C.ar    1  UNL1        0.0383
     28 C         143.9045  140.1248  164.5873 C.ar    1  UNL1        0.0964
     29 N         144.4781  141.4875  164.3348 N.ar    1  UNL1       -0.2476
     30 C         145.4032  141.8610  163.2146 C.3     1  UNL1        0.1537
     31 N         143.9642  142.4114  165.3990 N.ar    1  UNL1       -0.1719
@<TRIPOS>BOND
     1    25    24    1
     2    25    22    1
     3    22     1    1
     4     1     2   ar
     5     2    17    1
     6    17    18   am
     7    17    19    2
     8     2     3   ar
     9     3     4   ar
    10     4     5   ar
    11     5     6   ar
    12     6     7   ar
    13     7     8   ar
    14     8    11    1
    15    11    12   ar
    16    12    13   ar
    17    13    14   ar
    18    14    15   ar
    19    15    16   ar
    20     8     9   ar
    21     9    10   ar
    22    25    26    1
    23    26    27   ar
    24    27    28   ar
    25    28    29   ar
    26    29    30    1
    27    29    31   ar
    28    10     1   ar
    29    31    26   ar
    30    10     5   ar
    31    16    11   ar
    32    22    23    1
    33    18    20    1
    34    18    21    1
