@<TRIPOS>MOLECULE
*****
 38 43 0 0 0
SMALL
GASTEIGER

@<TRIPOS>ATOM
      1 C         140.4002  138.7728  159.3423 C.3     1  UNL1        0.0294
      2 C         139.6586  137.9872  160.3830 C.3     1  UNL1        0.0730
      3 C         140.5857  140.2740  169.7559 C.ar    1  UNL1        0.2359
      4 N         139.2947  140.1477  169.0027 N.ar    1  UNL1       -0.2100
      5 C         139.6191  139.7799  167.5852 C.ar    1  UNL1        0.1183
      6 C         138.7491  139.5239  166.3904 C.ar    1  UNL1        0.0178
      7 C         139.3706  139.1669  165.0726 C.ar    1  UNL1       -0.0230
      8 C         140.8621  139.0659  164.9498 C.ar    1  UNL1       -0.0216
      9 C         141.7322  139.3219  166.1445 C.ar    1  UNL1        0.0346
     10 C         141.1107  139.6789  167.4622 C.ar    1  UNL1        0.1642
     11 O         141.7080  139.9843  168.8038 O.2     1  UNL1       -0.4358
     12 C         141.6799  138.7263  163.7390 C.3     1  UNL1        0.0434
     13 C         141.2081  138.4037  162.3521 C.3     1  UNL1        0.0768
     14 N         139.8021  138.3411  161.8336 N.3     1  UNL1       -0.2720
     15 C         138.5204  138.5856  162.5737 C.3     1  UNL1        0.0768
     16 C         138.3284  138.9531  164.0152 C.3     1  UNL1        0.0434
     17 C         140.7292  140.6280  171.2065 C.3     1  UNL1        0.2272
     18 C         139.9045  143.0404  170.7068 C.3     1  UNL1        0.1748
     19 O         140.4583  142.0297  171.6668 O.3     1  UNL1       -0.3416
     20 C         141.6845  138.2433  158.7766 C.3     1  UNL1        0.0666
     21 S         142.9162  139.0993  158.7831 S.3     1  UNL1       -0.0756
     22 C         143.2803  139.8803  160.0110 C.ar    1  UNL1        0.1932
     23 N         144.2385  139.4460  161.0802 N.ar    1  UNL1       -0.1221
     24 N         144.3005  140.5299  162.1152 N.ar    1  UNL1       -0.1282
     25 C         143.3807  141.6342  161.6855 C.ar    1  UNL1        0.1669
     26 N         142.7501  141.2327  160.3850 N.ar    1  UNL1       -0.2884
     27 C         141.7628  142.0416  159.5971 C.3     1  UNL1        0.1340
     28 C         143.1346  142.9150  162.4263 C.ar    1  UNL1        0.0374
     29 C         144.2380  143.9206  162.5728 C.ar    1  UNL1        0.0031
     30 C         143.9919  145.2015  163.3136 C.ar    1  UNL1        0.0016
     31 C         142.6425  145.4769  163.9079 C.ar    1  UNL1        0.0191
     32 C         141.5391  144.4713  163.7614 C.ar    1  UNL1        0.0810
     33 N         140.1897  144.7466  164.3557 N.ar    1  UNL1       -0.2497
     34 C         139.0863  143.7411  164.2092 C.ar    1  UNL1        0.0593
     35 C         137.7368  144.0164  164.8035 C.3     1  UNL1        0.0521
     36 C         139.3324  142.4602  163.4684 C.ar    1  UNL1        0.0147
     37 C         140.6819  142.1849  162.8741 C.ar    1  UNL1        0.0028
     38 C         141.7852  143.1904  163.0206 C.ar    1  UNL1        0.0206
@<TRIPOS>BOND
     1    18    19    1
     2    19    17    1
     3    17     3    1
     4     3     4   ar
     5     4     5   ar
     6     5     6   ar
     7     6     7   ar
     8     7     8   ar
     9     8     9   ar
    10     9    10   ar
    11    10    11   ar
    12     8    12    1
    13    12    13    1
    14    13    14    1
    15    14     2    1
    16     2     1    1
    17     1    20    1
    18    20    21    1
    19    21    22    1
    20    22    23   ar
    21    23    24   ar
    22    24    25   ar
    23    25    28    1
    24    28    29   ar
    25    29    30   ar
    26    30    31   ar
    27    31    32   ar
    28    32    33   ar
    29    33    34   ar
    30    34    35    1
    31    34    36   ar
    32    36    37   ar
    33    37    38   ar
    34    25    26   ar
    35    26    27    1
    36    14    15    1
    37    15    16    1
    38    11     3   ar
    39    26    22   ar
    40    10     5   ar
    41    38    28   ar
    42    16     7    1
    43    38    32   ar
@<TRIPOS>MOLECULE
*****
 38 43 0 0 0
SMALL
GASTEIGER

@<TRIPOS>ATOM
      1 C         139.5816  140.4828  168.7654 C.3     1  UNL1        0.0294
      2 C         138.7525  139.5214  167.9665 C.3     1  UNL1        0.0730
      3 C         139.2846  139.5424  158.2889 C.ar    1  UNL1        0.2359
      4 N         139.3536  140.7482  159.1784 N.ar    1  UNL1       -0.2100
      5 C         139.2304  140.2838  160.5993 C.ar    1  UNL1        0.1183
      6 C         139.2317  141.0275  161.9020 C.ar    1  UNL1        0.0178
      7 C         139.0878  140.2781  163.1935 C.ar    1  UNL1       -0.0230
      8 C         138.9426  138.7853  163.1822 C.ar    1  UNL1       -0.0216
      9 C         138.9413  138.0416  161.8796 C.ar    1  UNL1        0.0346
     10 C         139.0852  138.7909  160.5881 C.ar    1  UNL1        0.1642
     11 O         139.1187  138.3327  159.1601 O.2     1  UNL1       -0.4358
     12 C         138.7877  137.8519  164.3462 C.3     1  UNL1        0.0434
     13 C         138.7397  138.1810  165.8089 C.3     1  UNL1        0.0768
     14 N         138.8348  139.5246  166.4688 N.3     1  UNL1       -0.2720
     15 C         139.0013  140.8711  165.8291 C.3     1  UNL1        0.0768
     16 C         139.1139  141.2065  164.3714 C.3     1  UNL1        0.0434
     17 C         139.3669  139.5456  156.7911 C.3     1  UNL1        0.2272
     18 C         139.3856  137.1648  155.7514 C.3     1  UNL1        0.1748
     19 O         138.6860  138.4681  156.0003 O.3     1  UNL1       -0.3416
     20 C         140.7338  139.9797  169.5836 C.3     1  UNL1        0.0666
     21 S         142.0711  139.7606  168.9407 S.3     1  UNL1       -0.0756
     22 C         142.6615  140.8201  168.0581 C.ar    1  UNL1        0.1932
     23 N         143.1995  142.1452  168.5103 N.ar    1  UNL1       -0.1221
     24 N         143.6881  142.8846  167.3001 N.ar    1  UNL1       -0.1282
     25 C         143.4521  142.0163  166.0999 C.ar    1  UNL1        0.1669
     26 N         142.8176  140.7403  166.5684 N.ar    1  UNL1       -0.2884
     27 C         142.4108  139.5871  165.6997 C.3     1  UNL1        0.1340
     28 C         143.7911  142.3630  164.6805 C.ar    1  UNL1        0.0374
     29 C         145.0451  141.8266  164.0563 C.ar    1  UNL1        0.0031
     30 C         145.3841  142.1733  162.6369 C.ar    1  UNL1        0.0016
     31 C         144.4690  143.0565  161.8415 C.ar    1  UNL1        0.0191
     32 C         143.2150  143.5929  162.4656 C.ar    1  UNL1        0.0810
     33 N         142.2999  144.4761  161.6703 N.ar    1  UNL1       -0.2497
     34 C         141.0457  145.0126  162.2944 C.ar    1  UNL1        0.0593
     35 C         140.1306  145.8957  161.4991 C.3     1  UNL1        0.0521
     36 C         140.7068  144.6658  163.7139 C.ar    1  UNL1        0.0147
     37 C         141.6219  143.7826  164.5092 C.ar    1  UNL1        0.0028
     38 C         142.8760  143.2462  163.8851 C.ar    1  UNL1        0.0206
@<TRIPOS>BOND
     1    18    19    1
     2    19    17    1
     3    17     3    1
     4     3     4   ar
     5     4     5   ar
     6     5     6   ar
     7     6     7   ar
     8     7     8   ar
     9     8     9   ar
    10     9    10   ar
    11    10    11   ar
    12     8    12    1
    13    12    13    1
    14    13    14    1
    15    14     2    1
    16     2     1    1
    17     1    20    1
    18    20    21    1
    19    21    22    1
    20    22    23   ar
    21    23    24   ar
    22    24    25   ar
    23    25    28    1
    24    28    29   ar
    25    29    30   ar
    26    30    31   ar
    27    31    32   ar
    28    32    33   ar
    29    33    34   ar
    30    34    35    1
    31    34    36   ar
    32    36    37   ar
    33    37    38   ar
    34    25    26   ar
    35    26    27    1
    36    14    15    1
    37    15    16    1
    38    11     3   ar
    39    26    22   ar
    40    10     5   ar
    41    38    28   ar
    42    16     7    1
    43    38    32   ar
@<TRIPOS>MOLECULE
*****
 38 43 0 0 0
SMALL
GASTEIGER

@<TRIPOS>ATOM
      1 C         143.4255  139.6530  159.6177 C.3     1  UNL1        0.0294
      2 C         144.3384  139.2155  160.7247 C.3     1  UNL1        0.0730
      3 C         142.3114  141.5862  169.9014 C.ar    1  UNL1        0.2359
      4 N         142.2015  140.2165  169.2996 N.ar    1  UNL1       -0.2100
      5 C         142.6122  140.3084  167.8599 C.ar    1  UNL1        0.1183
      6 C         142.7020  139.2774  166.7741 C.ar    1  UNL1        0.0178
      7 C         143.1556  139.6730  165.4000 C.ar    1  UNL1       -0.0230
      8 C         143.5194  141.0993  165.1120 C.ar    1  UNL1       -0.0216
      9 C         143.4297  142.1302  166.1978 C.ar    1  UNL1        0.0346
     10 C         142.9761  141.7348  167.5718 C.ar    1  UNL1        0.1642
     11 O         142.7902  142.5245  168.8335 O.2     1  UNL1       -0.4358
     12 C         143.9916  141.7018  163.8219 C.3     1  UNL1        0.0434
     13 C         144.2165  141.0267  162.5014 C.3     1  UNL1        0.0768
     14 N         144.0247  139.5824  162.1449 N.3     1  UNL1       -0.2720
     15 C         143.5608  138.4564  163.0206 C.3     1  UNL1        0.0768
     16 C         143.1740  138.4967  164.4693 C.3     1  UNL1        0.0434
     17 C         141.9977  141.9531  171.3216 C.3     1  UNL1        0.2272
     18 C         139.6341  142.8168  170.6756 C.3     1  UNL1        0.1748
     19 O         140.5941  142.3109  171.7112 O.3     1  UNL1       -0.3416
     20 C         143.8782  140.6971  158.6405 C.3     1  UNL1        0.0666
     21 S         143.1314  141.9930  158.5279 S.3     1  UNL1       -0.0756
     22 C         142.5384  142.6257  159.7519 C.ar    1  UNL1        0.1932
     23 N         143.1901  143.6711  160.6077 N.ar    1  UNL1       -0.1221
     24 N         142.2442  144.0156  161.7196 N.ar    1  UNL1       -0.1282
     25 C         141.0078  143.1832  161.5510 C.ar    1  UNL1        0.1669
     26 N         141.1896  142.3241  160.3348 N.ar    1  UNL1       -0.2884
     27 C         140.1970  141.3369  159.7963 C.3     1  UNL1        0.1340
     28 C         139.8014  143.2058  162.4421 C.ar    1  UNL1        0.0374
     29 C         138.9329  144.4275  162.4978 C.ar    1  UNL1        0.0031
     30 C         137.7265  144.4501  163.3889 C.ar    1  UNL1        0.0016
     31 C         137.3885  143.2510  164.2243 C.ar    1  UNL1        0.0191
     32 C         138.2570  142.0293  164.1686 C.ar    1  UNL1        0.0810
     33 N         137.9191  140.8301  165.0039 N.ar    1  UNL1       -0.2497
     34 C         138.7875  139.6083  164.9482 C.ar    1  UNL1        0.0593
     35 C         138.4496  138.4092  165.7836 C.3     1  UNL1        0.0521
     36 C         139.9940  139.5858  164.0571 C.ar    1  UNL1        0.0147
     37 C         140.3319  140.7850  163.2217 C.ar    1  UNL1        0.0028
     38 C         139.4634  142.0067  163.2775 C.ar    1  UNL1        0.0206
@<TRIPOS>BOND
     1    18    19    1
     2    19    17    1
     3    17     3    1
     4     3     4   ar
     5     4     5   ar
     6     5     6   ar
     7     6     7   ar
     8     7     8   ar
     9     8     9   ar
    10     9    10   ar
    11    10    11   ar
    12     8    12    1
    13    12    13    1
    14    13    14    1
    15    14     2    1
    16     2     1    1
    17     1    20    1
    18    20    21    1
    19    21    22    1
    20    22    23   ar
    21    23    24   ar
    22    24    25   ar
    23    25    28    1
    24    28    29   ar
    25    29    30   ar
    26    30    31   ar
    27    31    32   ar
    28    32    33   ar
    29    33    34   ar
    30    34    35    1
    31    34    36   ar
    32    36    37   ar
    33    37    38   ar
    34    25    26   ar
    35    26    27    1
    36    14    15    1
    37    15    16    1
    38    11     3   ar
    39    26    22   ar
    40    10     5   ar
    41    38    28   ar
    42    16     7    1
    43    38    32   ar
@<TRIPOS>MOLECULE
*****
 38 43 0 0 0
SMALL
GASTEIGER

@<TRIPOS>ATOM
      1 C         139.3176  140.2620  168.3548 C.3     1  UNL1        0.0294
      2 C         139.0175  139.2002  167.3386 C.3     1  UNL1        0.0730
      3 C         137.9307  141.5894  158.0085 C.ar    1  UNL1        0.2359
      4 N         138.0014  140.1960  158.5594 N.ar    1  UNL1       -0.2100
      5 C         138.1721  140.2936  160.0464 C.ar    1  UNL1        0.1183
      6 C         138.3004  139.2465  161.1128 C.ar    1  UNL1        0.0178
      7 C         138.4635  139.6531  162.5474 C.ar    1  UNL1       -0.0230
      8 C         138.4982  141.1067  162.9156 C.ar    1  UNL1       -0.0216
      9 C         138.3700  142.1539  161.8492 C.ar    1  UNL1        0.0346
     10 C         138.2069  141.7473  160.4146 C.ar    1  UNL1        0.1642
     11 O         138.0577  142.5481  159.1551 O.2     1  UNL1       -0.4358
     12 C         138.6514  141.7241  164.2741 C.3     1  UNL1        0.0434
     13 C         138.8077  141.0401  165.6000 C.3     1  UNL1        0.0768
     14 N         138.8493  139.5700  165.8946 N.3     1  UNL1       -0.2720
     15 C         138.7450  138.4206  164.9364 C.3     1  UNL1        0.0768
     16 C         138.5733  138.4576  163.4468 C.3     1  UNL1        0.0434
     17 C         137.7625  141.9592  156.5645 C.3     1  UNL1        0.2272
     18 C         137.8420  144.3740  155.6096 C.3     1  UNL1        0.1748
     19 O         137.0627  143.2329  156.1931 O.3     1  UNL1       -0.3416
     20 C         140.4642  140.0873  169.3060 C.3     1  UNL1        0.0666
     21 S         141.8456  139.8374  168.7777 S.3     1  UNL1       -0.0756
     22 C         142.5107  140.8594  167.9042 C.ar    1  UNL1        0.1932
     23 N         143.0969  142.1624  168.3610 N.ar    1  UNL1       -0.1221
     24 N         143.6550  142.8662  167.1597 N.ar    1  UNL1       -0.1282
     25 C         143.4137  141.9982  165.9604 C.ar    1  UNL1        0.1669
     26 N         142.7065  140.7579  166.4205 N.ar    1  UNL1       -0.2884
     27 C         142.2716  139.6166  165.5498 C.3     1  UNL1        0.1340
     28 C         143.8101  142.3148  164.5488 C.ar    1  UNL1        0.0374
     29 C         145.0857  141.7617  163.9859 C.ar    1  UNL1        0.0031
     30 C         145.4821  142.0783  162.5743 C.ar    1  UNL1        0.0016
     31 C         144.6029  142.9481  161.7255 C.ar    1  UNL1        0.0191
     32 C         143.3272  143.5012  162.2884 C.ar    1  UNL1        0.0810
     33 N         142.4479  144.3710  161.4397 N.ar    1  UNL1       -0.2497
     34 C         141.1723  144.9241  162.0025 C.ar    1  UNL1        0.0593
     35 C         140.2930  145.7939  161.1538 C.3     1  UNL1        0.0521
     36 C         140.7760  144.6074  163.4142 C.ar    1  UNL1        0.0147
     37 C         141.6552  143.7377  164.2629 C.ar    1  UNL1        0.0028
     38 C         142.9309  143.1846  163.7000 C.ar    1  UNL1        0.0206
@<TRIPOS>BOND
     1    18    19    1
     2    19    17    1
     3    17     3    1
     4     3     4   ar
     5     4     5   ar
     6     5     6   ar
     7     6     7   ar
     8     7     8   ar
     9     8     9   ar
    10     9    10   ar
    11    10    11   ar
    12     8    12    1
    13    12    13    1
    14    13    14    1
    15    14     2    1
    16     2     1    1
    17     1    20    1
    18    20    21    1
    19    21    22    1
    20    22    23   ar
    21    23    24   ar
    22    24    25   ar
    23    25    28    1
    24    28    29   ar
    25    29    30   ar
    26    30    31   ar
    27    31    32   ar
    28    32    33   ar
    29    33    34   ar
    30    34    35    1
    31    34    36   ar
    32    36    37   ar
    33    37    38   ar
    34    25    26   ar
    35    26    27    1
    36    14    15    1
    37    15    16    1
    38    11     3   ar
    39    26    22   ar
    40    10     5   ar
    41    38    28   ar
    42    16     7    1
    43    38    32   ar
@<TRIPOS>MOLECULE
*****
 38 43 0 0 0
SMALL
GASTEIGER

@<TRIPOS>ATOM
      1 C         139.8809  139.6286  158.0789 C.3     1  UNL1        0.0294
      2 C         140.2182  138.5293  159.0422 C.3     1  UNL1        0.0730
      3 C         139.3992  140.0248  168.5833 C.ar    1  UNL1        0.2359
      4 N         138.5272  139.1303  167.7530 N.ar    1  UNL1       -0.2100
      5 C         139.0093  139.1999  166.3343 C.ar    1  UNL1        0.1183
      6 C         138.5340  138.5307  165.0788 C.ar    1  UNL1        0.0178
      7 C         139.2288  138.7990  163.7767 C.ar    1  UNL1       -0.0230
      8 C         140.3987  139.7365  163.7302 C.ar    1  UNL1       -0.0216
      9 C         140.8740  140.4058  164.9857 C.ar    1  UNL1        0.0346
     10 C         140.1793  140.1375  166.2878 C.ar    1  UNL1        0.1642
     11 O         140.4202  140.6473  167.6777 O.2     1  UNL1       -0.4358
     12 C         141.2274  140.1402  162.5467 C.3     1  UNL1        0.0434
     13 C         141.0906  139.7058  161.1174 C.3     1  UNL1        0.0768
     14 N         140.0915  138.7608  160.5188 N.3     1  UNL1       -0.2720
     15 C         138.9823  138.0165  161.2013 C.3     1  UNL1        0.0768
     16 C         138.5984  138.0335  162.6513 C.3     1  UNL1        0.0434
     17 C         139.2724  140.2563  170.0599 C.3     1  UNL1        0.2272
     18 C         139.8521  142.7496  170.5040 C.3     1  UNL1        0.1748
     19 O         140.1237  141.2922  170.7325 O.3     1  UNL1       -0.3416
     20 C         138.4613  140.0922  157.9371 C.3     1  UNL1        0.0666
     21 S         138.1585  141.5568  157.8227 S.3     1  UNL1       -0.0756
     22 C         138.6546  142.5092  158.8700 C.ar    1  UNL1        0.1932
     23 N         139.3940  143.7898  158.6181 N.ar    1  UNL1       -0.1221
     24 N         139.6948  144.4203  159.9455 N.ar    1  UNL1       -0.1282
     25 C         139.1413  143.5294  161.0178 C.ar    1  UNL1        0.1669
     26 N         138.4984  142.3482  160.3532 N.ar    1  UNL1       -0.2884
     27 C         137.8187  141.2067  161.0495 C.3     1  UNL1        0.1340
     28 C         139.2172  143.7763  162.4954 C.ar    1  UNL1        0.0374
     29 C         137.9734  144.1077  163.2654 C.ar    1  UNL1        0.0031
     30 C         138.0493  144.3545  164.7430 C.ar    1  UNL1        0.0016
     31 C         139.3692  144.2700  165.4506 C.ar    1  UNL1        0.0191
     32 C         140.6131  143.9386  164.6806 C.ar    1  UNL1        0.0810
     33 N         141.9330  143.8540  165.3882 N.ar    1  UNL1       -0.2497
     34 C         143.1769  143.5226  164.6183 C.ar    1  UNL1        0.0593
     35 C         144.4968  143.4380  165.3259 C.3     1  UNL1        0.0521
     36 C         143.1009  143.2757  163.1407 C.ar    1  UNL1        0.0147
     37 C         141.7810  143.3603  162.4331 C.ar    1  UNL1        0.0028
     38 C         140.5371  143.6917  163.2031 C.ar    1  UNL1        0.0206
@<TRIPOS>BOND
     1    18    19    1
     2    19    17    1
     3    17     3    1
     4     3     4   ar
     5     4     5   ar
     6     5     6   ar
     7     6     7   ar
     8     7     8   ar
     9     8     9   ar
    10     9    10   ar
    11    10    11   ar
    12     8    12    1
    13    12    13    1
    14    13    14    1
    15    14     2    1
    16     2     1    1
    17     1    20    1
    18    20    21    1
    19    21    22    1
    20    22    23   ar
    21    23    24   ar
    22    24    25   ar
    23    25    28    1
    24    28    29   ar
    25    29    30   ar
    26    30    31   ar
    27    31    32   ar
    28    32    33   ar
    29    33    34   ar
    30    34    35    1
    31    34    36   ar
    32    36    37   ar
    33    37    38   ar
    34    25    26   ar
    35    26    27    1
    36    14    15    1
    37    15    16    1
    38    11     3   ar
    39    26    22   ar
    40    10     5   ar
    41    38    28   ar
    42    16     7    1
    43    38    32   ar
@<TRIPOS>MOLECULE
*****
 38 43 0 0 0
SMALL
GASTEIGER

@<TRIPOS>ATOM
      1 C         139.5092  138.7989  159.1133 C.3     1  UNL1        0.0294
      2 C         139.0717  138.0402  160.3312 C.3     1  UNL1        0.0730
      3 C         140.0223  142.0168  169.1189 C.ar    1  UNL1        0.2359
      4 N         140.3853  142.6629  167.8147 N.ar    1  UNL1       -0.2100
      5 C         140.0737  141.6927  166.7142 C.ar    1  UNL1        0.1183
      6 C         140.2241  141.7826  165.2244 C.ar    1  UNL1        0.0178
      7 C         139.8189  140.6267  164.3585 C.ar    1  UNL1       -0.0230
      8 C         139.2633  139.3810  164.9824 C.ar    1  UNL1       -0.0216
      9 C         139.1128  139.2910  166.4721 C.ar    1  UNL1        0.0346
     10 C         139.5180  140.4468  167.3380 C.ar    1  UNL1        0.1642
     11 O         139.4863  140.6472  168.8242 O.2     1  UNL1       -0.4358
     12 C         138.8018  138.1230  164.3080 C.3     1  UNL1        0.0434
     13 C         138.7820  137.8002  162.8432 C.3     1  UNL1        0.0768
     14 N         139.2188  138.6557  161.6912 N.3     1  UNL1       -0.2720
     15 C         139.7833  140.0451  161.7192 C.3     1  UNL1        0.0768
     16 C         140.0503  140.9223  162.9063 C.3     1  UNL1        0.0434
     17 C         140.1694  142.6322  170.4789 C.3     1  UNL1        0.2272
     18 C         142.7644  142.6982  170.3735 C.3     1  UNL1        0.1748
     19 O         141.4987  142.6078  171.1734 O.3     1  UNL1       -0.3416
     20 C         140.3685  138.1302  158.0816 C.3     1  UNL1        0.0666
     21 S         141.8445  138.3949  158.0490 S.3     1  UNL1       -0.0756
     22 C         142.6072  138.5496  159.3314 C.ar    1  UNL1        0.1932
     23 N         143.3813  137.4728  160.0322 N.ar    1  UNL1       -0.1221
     24 N         143.9822  138.0659  161.2720 N.ar    1  UNL1       -0.1282
     25 C         143.5795  139.5094  161.3374 C.ar    1  UNL1        0.1669
     26 N         142.7296  139.8083  160.1380 N.ar    1  UNL1       -0.2884
     27 C         142.1110  141.1334  159.8040 C.3     1  UNL1        0.1340
     28 C         143.9598  140.4829  162.4133 C.ar    1  UNL1        0.0374
     29 C         144.6592  141.7607  162.0554 C.ar    1  UNL1        0.0031
     30 C         145.0395  142.7343  163.1313 C.ar    1  UNL1        0.0016
     31 C         144.7204  142.4302  164.5650 C.ar    1  UNL1        0.0191
     32 C         144.0209  141.1524  164.9229 C.ar    1  UNL1        0.0810
     33 N         143.7017  140.8482  166.3566 N.ar    1  UNL1       -0.2497
     34 C         143.0022  139.5705  166.7145 C.ar    1  UNL1        0.0593
     35 C         142.6830  139.2663  168.1482 C.3     1  UNL1        0.0521
     36 C         142.6219  138.5969  165.6385 C.ar    1  UNL1        0.0147
     37 C         142.9411  138.9011  164.2048 C.ar    1  UNL1        0.0028
     38 C         143.6406  140.1788  163.8470 C.ar    1  UNL1        0.0206
@<TRIPOS>BOND
     1    18    19    1
     2    19    17    1
     3    17     3    1
     4     3     4   ar
     5     4     5   ar
     6     5     6   ar
     7     6     7   ar
     8     7     8   ar
     9     8     9   ar
    10     9    10   ar
    11    10    11   ar
    12     8    12    1
    13    12    13    1
    14    13    14    1
    15    14     2    1
    16     2     1    1
    17     1    20    1
    18    20    21    1
    19    21    22    1
    20    22    23   ar
    21    23    24   ar
    22    24    25   ar
    23    25    28    1
    24    28    29   ar
    25    29    30   ar
    26    30    31   ar
    27    31    32   ar
    28    32    33   ar
    29    33    34   ar
    30    34    35    1
    31    34    36   ar
    32    36    37   ar
    33    37    38   ar
    34    25    26   ar
    35    26    27    1
    36    14    15    1
    37    15    16    1
    38    11     3   ar
    39    26    22   ar
    40    10     5   ar
    41    38    28   ar
    42    16     7    1
    43    38    32   ar
@<TRIPOS>MOLECULE
*****
 38 43 0 0 0
SMALL
GASTEIGER

@<TRIPOS>ATOM
      1 C         143.1640  142.1773  158.5679 C.3     1  UNL1        0.0294
      2 C         144.2691  141.8343  159.5225 C.3     1  UNL1        0.0730
      3 C         142.5479  141.6323  169.0586 C.ar    1  UNL1        0.2359
      4 N         142.0518  140.6371  168.0518 N.ar    1  UNL1       -0.2100
      5 C         142.5544  141.0540  166.7015 C.ar    1  UNL1        0.1183
      6 C         142.3817  140.4547  165.3373 C.ar    1  UNL1        0.0178
      7 C         143.0158  141.1082  164.1452 C.ar    1  UNL1       -0.0230
      8 C         143.8226  142.3609  164.3174 C.ar    1  UNL1       -0.0216
      9 C         143.9953  142.9603  165.6815 C.ar    1  UNL1        0.0346
     10 C         143.3612  142.3068  166.8736 C.ar    1  UNL1        0.1642
     11 O         143.3572  142.6642  168.3304 O.2     1  UNL1       -0.4358
     12 C         144.5339  143.1665  163.2709 C.3     1  UNL1        0.0434
     13 C         144.6140  142.9181  161.7937 C.3     1  UNL1        0.0768
     14 N         144.0027  141.8030  160.9984 N.3     1  UNL1       -0.2720
     15 C         143.1603  140.6607  161.4835 C.3     1  UNL1        0.0768
     16 C         142.7210  140.3515  162.8841 C.3     1  UNL1        0.0434
     17 C         142.2816  141.6010  170.5345 C.3     1  UNL1        0.2272
     18 C         140.1066  143.0065  170.3249 C.3     1  UNL1        0.1748
     19 O         141.2797  142.5416  171.1358 O.3     1  UNL1       -0.3416
     20 C         143.0455  143.5715  158.0274 C.3     1  UNL1        0.0666
     21 S         141.6973  144.2183  157.9099 S.3     1  UNL1       -0.0756
     22 C         140.5634  143.7508  158.7734 C.ar    1  UNL1        0.1932
     23 N         139.2935  143.1136  158.2924 N.ar    1  UNL1       -0.1221
     24 N         138.4455  142.8074  159.4912 N.ar    1  UNL1       -0.1282
     25 C         139.1913  143.2555  160.7131 C.ar    1  UNL1        0.1669
     26 N         140.5002  143.8386  160.2695 N.ar    1  UNL1       -0.2884
     27 C         141.5599  144.4091  161.1648 C.3     1  UNL1        0.1340
     28 C         138.7122  143.1406  162.1299 C.ar    1  UNL1        0.0374
     29 C         138.2040  144.3541  162.8505 C.ar    1  UNL1        0.0031
     30 C         137.7250  144.2392  164.2673 C.ar    1  UNL1        0.0016
     31 C         137.7541  142.9110  164.9636 C.ar    1  UNL1        0.0191
     32 C         138.2623  141.6975  164.2430 C.ar    1  UNL1        0.0810
     33 N         138.2915  140.3692  164.9392 N.ar    1  UNL1       -0.2497
     34 C         138.7997  139.1557  164.2186 C.ar    1  UNL1        0.0593
     35 C         138.8289  137.8274  164.9149 C.3     1  UNL1        0.0521
     36 C         139.2788  139.2706  162.8018 C.ar    1  UNL1        0.0147
     37 C         139.2496  140.5989  162.1056 C.ar    1  UNL1        0.0028
     38 C         138.7414  141.8124  162.8262 C.ar    1  UNL1        0.0206
@<TRIPOS>BOND
     1    18    19    1
     2    19    17    1
     3    17     3    1
     4     3     4   ar
     5     4     5   ar
     6     5     6   ar
     7     6     7   ar
     8     7     8   ar
     9     8     9   ar
    10     9    10   ar
    11    10    11   ar
    12     8    12    1
    13    12    13    1
    14    13    14    1
    15    14     2    1
    16     2     1    1
    17     1    20    1
    18    20    21    1
    19    21    22    1
    20    22    23   ar
    21    23    24   ar
    22    24    25   ar
    23    25    28    1
    24    28    29   ar
    25    29    30   ar
    26    30    31   ar
    27    31    32   ar
    28    32    33   ar
    29    33    34   ar
    30    34    35    1
    31    34    36   ar
    32    36    37   ar
    33    37    38   ar
    34    25    26   ar
    35    26    27    1
    36    14    15    1
    37    15    16    1
    38    11     3   ar
    39    26    22   ar
    40    10     5   ar
    41    38    28   ar
    42    16     7    1
    43    38    32   ar
@<TRIPOS>MOLECULE
*****
 38 43 0 0 0
SMALL
GASTEIGER

@<TRIPOS>ATOM
      1 C         139.7540  138.3986  158.0225 C.3     1  UNL1        0.0294
      2 C         139.0988  139.5599  158.7096 C.3     1  UNL1        0.0730
      3 C         139.4764  140.3209  168.3646 C.ar    1  UNL1        0.2359
      4 N         139.0046  139.1247  167.5922 N.ar    1  UNL1       -0.2100
      5 C         139.1161  139.4432  166.1307 C.ar    1  UNL1        0.1183
      6 C         138.7952  138.6446  164.9021 C.ar    1  UNL1        0.0178
      7 C         139.0149  139.2392  163.5426 C.ar    1  UNL1       -0.0230
      8 C         139.5555  140.6321  163.4117 C.ar    1  UNL1       -0.0216
      9 C         139.8765  141.4307  164.6402 C.ar    1  UNL1        0.0346
     10 C         139.6568  140.8362  165.9997 C.ar    1  UNL1        0.1642
     11 O         139.8794  141.3786  167.3804 O.2     1  UNL1       -0.4358
     12 C         139.8470  141.4087  162.1618 C.3     1  UNL1        0.0434
     13 C         139.6697  140.9838  160.7341 C.3     1  UNL1        0.0768
     14 N         139.1572  139.6777  160.2038 N.3     1  UNL1       -0.2720
     15 C         138.6954  138.4737  160.9701 C.3     1  UNL1        0.0768
     16 C         138.6321  138.2785  162.4560 C.3     1  UNL1        0.0434
     17 C         139.5348  140.4387  169.8588 C.3     1  UNL1        0.2272
     18 C         139.8578  142.8898  170.6573 C.3     1  UNL1        0.1748
     19 O         138.9996  141.6655  170.5359 O.3     1  UNL1       -0.3416
     20 C         140.5749  138.6236  156.7874 C.3     1  UNL1        0.0666
     21 S         142.0175  139.0167  156.9069 S.3     1  UNL1       -0.0756
     22 C         142.6571  139.1198  158.2598 C.ar    1  UNL1        0.1932
     23 N         143.3257  138.0037  159.0063 N.ar    1  UNL1       -0.1221
     24 N         143.8223  138.5511  160.3116 N.ar    1  UNL1       -0.1282
     25 C         143.4605  140.0056  160.3718 C.ar    1  UNL1        0.1669
     26 N         142.7404  140.3571  159.1037 N.ar    1  UNL1       -0.2884
     27 C         142.1987  141.7085  158.7430 C.3     1  UNL1        0.1340
     28 C         143.7653  140.9439  161.5017 C.ar    1  UNL1        0.0374
     29 C         144.3113  142.3112  161.2146 C.ar    1  UNL1        0.0031
     30 C         144.6161  143.2495  162.3445 C.ar    1  UNL1        0.0016
     31 C         144.3750  142.8205  163.7615 C.ar    1  UNL1        0.0191
     32 C         143.8291  141.4532  164.0485 C.ar    1  UNL1        0.0810
     33 N         143.5879  141.0242  165.4655 N.ar    1  UNL1       -0.2497
     34 C         143.0420  139.6569  165.7526 C.ar    1  UNL1        0.0593
     35 C         142.8009  139.2279  167.1696 C.3     1  UNL1        0.0521
     36 C         142.7372  138.7186  164.6226 C.ar    1  UNL1        0.0147
     37 C         142.9783  139.1476  163.2057 C.ar    1  UNL1        0.0028
     38 C         143.5242  140.5149  162.9186 C.ar    1  UNL1        0.0206
@<TRIPOS>BOND
     1    18    19    1
     2    19    17    1
     3    17     3    1
     4     3     4   ar
     5     4     5   ar
     6     5     6   ar
     7     6     7   ar
     8     7     8   ar
     9     8     9   ar
    10     9    10   ar
    11    10    11   ar
    12     8    12    1
    13    12    13    1
    14    13    14    1
    15    14     2    1
    16     2     1    1
    17     1    20    1
    18    20    21    1
    19    21    22    1
    20    22    23   ar
    21    23    24   ar
    22    24    25   ar
    23    25    28    1
    24    28    29   ar
    25    29    30   ar
    26    30    31   ar
    27    31    32   ar
    28    32    33   ar
    29    33    34   ar
    30    34    35    1
    31    34    36   ar
    32    36    37   ar
    33    37    38   ar
    34    25    26   ar
    35    26    27    1
    36    14    15    1
    37    15    16    1
    38    11     3   ar
    39    26    22   ar
    40    10     5   ar
    41    38    28   ar
    42    16     7    1
    43    38    32   ar
@<TRIPOS>MOLECULE
*****
 38 43 0 0 0
SMALL
GASTEIGER

@<TRIPOS>ATOM
      1 C         143.3858  142.5870  158.4783 C.3     1  UNL1        0.0294
      2 C         144.3802  142.4998  159.5981 C.3     1  UNL1        0.0730
      3 C         141.3316  142.5139  168.7985 C.ar    1  UNL1        0.2359
      4 N         140.4571  142.5259  167.5798 N.ar    1  UNL1       -0.2100
      5 C         141.3457  142.5187  166.3715 C.ar    1  UNL1        0.1183
      6 C         141.0424  142.5251  164.9024 C.ar    1  UNL1        0.0178
      7 C         142.1630  142.5150  163.9052 C.ar    1  UNL1       -0.0230
      8 C         143.5866  142.4986  164.3771 C.ar    1  UNL1       -0.0216
      9 C         143.8900  142.4923  165.8460 C.ar    1  UNL1        0.0346
     10 C         142.7695  142.5023  166.8433 C.ar    1  UNL1        0.1642
     11 O         142.7608  142.4993  168.3432 O.2     1  UNL1       -0.4358
     12 C         144.8433  142.4867  163.5580 C.3     1  UNL1        0.0434
     13 C         144.9864  142.4882  162.0648 C.3     1  UNL1        0.0768
     14 N         143.9084  142.5020  161.0220 N.3     1  UNL1       -0.2720
     15 C         142.4209  142.5177  161.2147 C.3     1  UNL1        0.0768
     16 C         141.6441  142.5235  162.4979 C.3     1  UNL1        0.0434
     17 C         140.8598  142.5161  170.2224 C.3     1  UNL1        0.2272
     18 C         140.1328  140.0265  170.3751 C.3     1  UNL1        0.1748
     19 O         139.8907  141.4723  170.6929 O.3     1  UNL1       -0.3416
     20 C         143.5384  141.7114  157.2700 C.3     1  UNL1        0.0666
     21 S         142.7079  140.4697  157.1339 S.3     1  UNL1       -0.0756
     22 C         142.4906  139.5789  158.3210 C.ar    1  UNL1        0.1932
     23 N         143.3159  138.3811  158.6873 N.ar    1  UNL1       -0.1221
     24 N         142.7453  137.7913  159.9429 N.ar    1  UNL1       -0.1282
     25 C         141.5672  138.6246  160.3526 C.ar    1  UNL1        0.1669
     26 N         141.4098  139.7294  159.3502 N.ar    1  UNL1       -0.2884
     27 C         140.3566  140.7972  159.3730 C.3     1  UNL1        0.1340
     28 C         140.6990  138.3937  161.5537 C.ar    1  UNL1        0.0374
     29 C         139.2538  138.0333  161.3764 C.ar    1  UNL1        0.0031
     30 C         138.3856  137.8024  162.5776 C.ar    1  UNL1        0.0016
     31 C         138.9625  137.9319  163.9561 C.ar    1  UNL1        0.0191
     32 C         140.4077  138.2923  164.1334 C.ar    1  UNL1        0.0810
     33 N         140.9847  138.4218  165.5119 N.ar    1  UNL1       -0.2497
     34 C         142.4300  138.7822  165.6893 C.ar    1  UNL1        0.0593
     35 C         143.0070  138.9117  167.0678 C.3     1  UNL1        0.0521
     36 C         143.2982  139.0131  164.4881 C.ar    1  UNL1        0.0147
     37 C         142.7212  138.8836  163.1096 C.ar    1  UNL1        0.0028
     38 C         141.2759  138.5232  162.9323 C.ar    1  UNL1        0.0206
@<TRIPOS>BOND
     1    18    19    1
     2    19    17    1
     3    17     3    1
     4     3     4   ar
     5     4     5   ar
     6     5     6   ar
     7     6     7   ar
     8     7     8   ar
     9     8     9   ar
    10     9    10   ar
    11    10    11   ar
    12     8    12    1
    13    12    13    1
    14    13    14    1
    15    14     2    1
    16     2     1    1
    17     1    20    1
    18    20    21    1
    19    21    22    1
    20    22    23   ar
    21    23    24   ar
    22    24    25   ar
    23    25    28    1
    24    28    29   ar
    25    29    30   ar
    26    30    31   ar
    27    31    32   ar
    28    32    33   ar
    29    33    34   ar
    30    34    35    1
    31    34    36   ar
    32    36    37   ar
    33    37    38   ar
    34    25    26   ar
    35    26    27    1
    36    14    15    1
    37    15    16    1
    38    11     3   ar
    39    26    22   ar
    40    10     5   ar
    41    38    28   ar
    42    16     7    1
    43    38    32   ar
