@<TRIPOS>MOLECULE
*****
 28 31 0 0 0
SMALL
GASTEIGER

@<TRIPOS>ATOM
      1 C         140.7749  142.0137  167.3238 C.3     1  UNL1        0.1686
      2 C         142.1020  141.3175  167.3858 C.3     1  UNL1        0.0595
      3 C         143.0377  141.5870  168.5268 C.3     1  UNL1        0.0614
      4 C         143.6210  142.1397  169.7934 C.3     1  UNL1        0.0175
      5 C         142.6287  143.0992  170.3806 C.3     1  UNL1        0.0175
      6 C         141.4321  143.1394  169.4769 C.3     1  UNL1        0.0614
      7 C         140.3834  142.9794  168.4029 C.3     1  UNL1        0.0595
      8 N         141.6849  142.2048  168.3312 N.3     1  UNL1       -0.2713
      9 O         139.8391  141.7443  166.1828 O.3     1  UNL1       -0.4794
     10 C         140.4989  140.1433  163.3744 C.3     1  UNL1        0.0344
     11 C         139.7392  139.6958  164.5879 C.ar    1  UNL1        0.0165
     12 C         139.3904  140.3420  165.8959 C.ar    1  UNL1        0.1345
     13 C         138.5931  139.5860  166.9170 C.ar    1  UNL1        0.0366
     14 C         138.1445  138.1837  166.6300 C.ar    1  UNL1        0.0032
     15 C         138.4932  137.5375  165.3221 C.ar    1  UNL1        0.0044
     16 C         139.2905  138.2936  164.3010 C.ar    1  UNL1        0.0521
     17 C         139.6392  137.6473  162.9930 C.2     1  UNL1        0.2425
     18 N         138.6682  137.6945  161.8508 N.am    1  UNL1       -0.3253
     19 O         140.9590  136.9538  162.8274 O.2     1  UNL1       -0.2704
     20 H         137.8021  138.1497  161.9595 H       1  UNL1        0.1453
     21 H         138.8971  137.2703  160.9923 H       1  UNL1        0.1453
     22 C         140.7493  141.9354  167.1902 C.3     1  UNL1        0.0991
     23 C         140.6123  142.9352  166.0804 C.ar    1  UNL1       -0.0061
     24 C         141.7402  143.1414  165.1133 C.ar    1  UNL1       -0.0029
     25 C         141.6033  144.1411  164.0035 C.ar    1  UNL1       -0.0003
     26 C         140.3385  144.9347  163.8608 C.ar    1  UNL1       -0.0000
     27 C         139.2105  144.7285  164.8279 C.ar    1  UNL1       -0.0003
     28 C         139.3475  143.7287  165.9377 C.ar    1  UNL1       -0.0029
@<TRIPOS>BOND
     1    10    11    1
     2    11    12   ar
     3    12     9    1
     4     1     9    1
     5     1     2    1
     6     3     2    1
     7     3     4    1
     8     4     5    1
     9     6     5    1
    10     6     7    1
    11     6     8    1
    12     8    22    1
    13    22    23    1
    14    23    24   ar
    15    24    25   ar
    16    25    26   ar
    17    26    27   ar
    18    27    28   ar
    19    12    13   ar
    20    13    14   ar
    21    14    15   ar
    22    15    16   ar
    23    16    17    1
    24    17    18   am
    25    17    19    2
    26    16    11   ar
    27     7     1    1
    28    28    23   ar
    29     8     3    1
    30    18    20    1
    31    18    21    1
@<TRIPOS>MOLECULE
*****
 28 31 0 0 0
SMALL
GASTEIGER

@<TRIPOS>ATOM
      1 C         142.3017  140.9186  166.6567 C.3     1  UNL1        0.1686
      2 C         142.1661  139.6037  167.3656 C.3     1  UNL1        0.0595
      3 C         142.4598  139.5092  168.8335 C.3     1  UNL1        0.0614
      4 C         142.8399  139.8716  170.2385 C.3     1  UNL1        0.0175
      5 C         143.1660  141.3354  170.2675 C.3     1  UNL1        0.0175
      6 C         142.9875  141.8777  168.8804 C.3     1  UNL1        0.0614
      7 C         142.7310  142.1391  167.4158 C.3     1  UNL1        0.0595
      8 N         142.5510  140.7490  167.9941 N.3     1  UNL1       -0.2713
      9 O         142.0079  141.0132  165.1887 O.3     1  UNL1       -0.4794
     10 C         140.3793  143.8581  164.8148 C.3     1  UNL1        0.0344
     11 C         139.9307  142.4472  164.5734 C.ar    1  UNL1        0.0165
     12 C         140.5886  141.1064  164.7124 C.ar    1  UNL1        0.1345
     13 C         139.8274  139.8588  164.3750 C.ar    1  UNL1        0.0366
     14 C         138.4081  139.9521  163.8986 C.ar    1  UNL1        0.0032
     15 C         137.7501  141.2929  163.7596 C.ar    1  UNL1        0.0044
     16 C         138.5115  142.5404  164.0970 C.ar    1  UNL1        0.0521
     17 C         137.8535  143.8813  163.9580 C.2     1  UNL1        0.2425
     18 N         137.6413  144.4751  162.5971 N.am    1  UNL1       -0.3253
     19 O         137.4077  144.6282  165.1800 O.2     1  UNL1       -0.2704
     20 H         137.9339  143.9848  161.7950 H       1  UNL1        0.1453
     21 H         137.2095  145.3551  162.5058 H       1  UNL1        0.1453
     22 C         142.2573  140.8435  166.5262 C.3     1  UNL1        0.0991
     23 C         143.3775  141.0413  165.5484 C.ar    1  UNL1       -0.0061
     24 C         143.8553  142.4260  165.2254 C.ar    1  UNL1       -0.0029
     25 C         144.9754  142.6238  164.2477 C.ar    1  UNL1       -0.0003
     26 C         145.6177  141.4369  163.5928 C.ar    1  UNL1       -0.0000
     27 C         145.1398  140.0522  163.9157 C.ar    1  UNL1       -0.0003
     28 C         144.0197  139.8545  164.8936 C.ar    1  UNL1       -0.0029
@<TRIPOS>BOND
     1    10    11    1
     2    11    12   ar
     3    12     9    1
     4     1     9    1
     5     1     2    1
     6     3     2    1
     7     3     4    1
     8     4     5    1
     9     6     5    1
    10     6     7    1
    11     6     8    1
    12     8    22    1
    13    22    23    1
    14    23    24   ar
    15    24    25   ar
    16    25    26   ar
    17    26    27   ar
    18    27    28   ar
    19    12    13   ar
    20    13    14   ar
    21    14    15   ar
    22    15    16   ar
    23    16    17    1
    24    17    18   am
    25    17    19    2
    26    16    11   ar
    27     7     1    1
    28    28    23   ar
    29     8     3    1
    30    18    20    1
    31    18    21    1
@<TRIPOS>MOLECULE
*****
 28 31 0 0 0
SMALL
GASTEIGER

@<TRIPOS>ATOM
      1 C         140.9166  140.8876  167.3697 C.3     1  UNL1        0.1686
      2 C         140.3257  141.6368  168.5271 C.3     1  UNL1        0.0595
      3 C         140.9094  141.4783  169.8997 C.3     1  UNL1        0.0614
      4 C         141.7795  141.0320  171.0371 C.3     1  UNL1        0.0175
      5 C         142.7989  140.0754  170.4931 C.3     1  UNL1        0.0175
      6 C         142.5588  139.9306  169.0196 C.3     1  UNL1        0.0614
      7 C         142.0913  139.9800  167.5850 C.3     1  UNL1        0.0595
      8 N         141.3910  140.7976  168.6528 N.3     1  UNL1       -0.2713
      9 O         140.3329  141.0461  165.9970 O.3     1  UNL1       -0.4794
     10 C         142.9793  142.4092  164.5741 C.3     1  UNL1        0.0344
     11 C         141.5799  142.9306  164.7149 C.ar    1  UNL1        0.0165
     12 C         140.3250  142.3927  165.3362 C.ar    1  UNL1        0.1345
     13 C         139.0624  143.2014  165.2968 C.ar    1  UNL1        0.0366
     14 C         139.0545  144.5480  164.6361 C.ar    1  UNL1        0.0032
     15 C         140.3093  145.0859  164.0148 C.ar    1  UNL1        0.0044
     16 C         141.5720  144.2772  164.0542 C.ar    1  UNL1        0.0521
     17 C         142.8269  144.8152  163.4328 C.2     1  UNL1        0.2425
     18 N         143.0152  144.7500  161.9462 N.am    1  UNL1       -0.3253
     19 O         143.8934  145.4182  164.2983 O.2     1  UNL1       -0.2704
     20 H         142.3152  144.3542  161.3783 H       1  UNL1        0.1453
     21 H         143.8388  145.1031  161.5384 H       1  UNL1        0.1453
     22 C         140.8073  140.9561  167.2802 C.3     1  UNL1        0.0991
     23 C         140.1032  139.8039  166.6269 C.ar    1  UNL1       -0.0061
     24 C         140.7840  139.0289  165.5379 C.ar    1  UNL1       -0.0029
     25 C         140.0801  137.8768  164.8847 C.ar    1  UNL1       -0.0003
     26 C         138.6952  137.4995  165.3204 C.ar    1  UNL1       -0.0000
     27 C         138.0143  138.2744  166.4094 C.ar    1  UNL1       -0.0003
     28 C         138.7184  139.4266  167.0626 C.ar    1  UNL1       -0.0029
@<TRIPOS>BOND
     1    10    11    1
     2    11    12   ar
     3    12     9    1
     4     1     9    1
     5     1     2    1
     6     3     2    1
     7     3     4    1
     8     4     5    1
     9     6     5    1
    10     6     7    1
    11     6     8    1
    12     8    22    1
    13    22    23    1
    14    23    24   ar
    15    24    25   ar
    16    25    26   ar
    17    26    27   ar
    18    27    28   ar
    19    12    13   ar
    20    13    14   ar
    21    14    15   ar
    22    15    16   ar
    23    16    17    1
    24    17    18   am
    25    17    19    2
    26    16    11   ar
    27     7     1    1
    28    28    23   ar
    29     8     3    1
    30    18    20    1
    31    18    21    1
@<TRIPOS>MOLECULE
*****
 28 31 0 0 0
SMALL
GASTEIGER

@<TRIPOS>ATOM
      1 C         140.1209  140.4571  164.8886 C.3     1  UNL1        0.1686
      2 C         139.0793  139.4091  165.1468 C.3     1  UNL1        0.0595
      3 C         138.7440  138.4067  164.0824 C.3     1  UNL1        0.0614
      4 C         138.7368  137.6486  162.7882 C.3     1  UNL1        0.0175
      5 C         139.7459  138.2801  161.8756 C.3     1  UNL1        0.0175
      6 C         140.3767  139.4285  162.6058 C.3     1  UNL1        0.0614
      7 C         140.8271  140.5028  163.5660 C.3     1  UNL1        0.0595
      8 N         139.7575  139.5068  163.9697 N.3     1  UNL1       -0.2713
      9 O         140.4563  141.4595  165.9530 O.3     1  UNL1       -0.4794
     10 C         140.4457  143.1588  168.7811 C.3     1  UNL1        0.0344
     11 C         141.1186  141.8643  168.4324 C.ar    1  UNL1        0.0165
     12 C         141.1818  141.0240  167.1915 C.ar    1  UNL1        0.1345
     13 C         141.9705  139.7481  167.1891 C.ar    1  UNL1        0.0366
     14 C         142.6961  139.3126  168.4276 C.ar    1  UNL1        0.0032
     15 C         142.6328  140.1529  169.6685 C.ar    1  UNL1        0.0044
     16 C         141.8440  141.4288  169.6709 C.ar    1  UNL1        0.0521
     17 C         141.7808  142.2691  170.9119 C.2     1  UNL1        0.2425
     18 N         142.8462  143.2899  171.1814 N.am    1  UNL1       -0.3253
     19 O         140.6521  142.0885  171.8832 O.2     1  UNL1       -0.2704
     20 H         143.5869  143.4085  170.5439 H       1  UNL1        0.1453
     21 H         142.8047  143.8415  171.9959 H       1  UNL1        0.1453
     22 C         140.0928  140.5091  165.0341 C.3     1  UNL1        0.0991
     23 C         139.7137  141.9493  164.8543 C.ar    1  UNL1       -0.0061
     24 C         138.2673  142.3432  164.8028 C.ar    1  UNL1       -0.0029
     25 C         137.8881  143.7832  164.6230 C.ar    1  UNL1       -0.0003
     26 C         138.9554  144.8294  164.4949 C.ar    1  UNL1       -0.0000
     27 C         140.4019  144.4355  164.5465 C.ar    1  UNL1       -0.0003
     28 C         140.7809  142.9954  164.7262 C.ar    1  UNL1       -0.0029
@<TRIPOS>BOND
     1    10    11    1
     2    11    12   ar
     3    12     9    1
     4     1     9    1
     5     1     2    1
     6     3     2    1
     7     3     4    1
     8     4     5    1
     9     6     5    1
    10     6     7    1
    11     6     8    1
    12     8    22    1
    13    22    23    1
    14    23    24   ar
    15    24    25   ar
    16    25    26   ar
    17    26    27   ar
    18    27    28   ar
    19    12    13   ar
    20    13    14   ar
    21    14    15   ar
    22    15    16   ar
    23    16    17    1
    24    17    18   am
    25    17    19    2
    26    16    11   ar
    27     7     1    1
    28    28    23   ar
    29     8     3    1
    30    18    20    1
    31    18    21    1
@<TRIPOS>MOLECULE
*****
 28 31 0 0 0
SMALL
GASTEIGER

@<TRIPOS>ATOM
      1 C         139.2927  141.3014  165.5921 C.3     1  UNL1        0.1686
      2 C         140.1351  142.5390  165.6856 C.3     1  UNL1        0.0595
      3 C         139.7452  143.7708  164.9237 C.3     1  UNL1        0.0614
      4 C         139.0044  144.7207  164.0299 C.3     1  UNL1        0.0175
      5 C         137.8067  144.0028  163.4820 C.3     1  UNL1        0.0175
      6 C         137.8073  142.6093  164.0373 C.3     1  UNL1        0.0614
      7 C         138.0605  141.2956  164.7367 C.3     1  UNL1        0.0595
      8 N         139.0054  142.4660  164.9283 N.3     1  UNL1       -0.2713
      9 O         139.6826  140.0694  166.3539 O.3     1  UNL1       -0.4794
     10 C         142.6914  140.3998  167.6667 C.3     1  UNL1        0.0344
     11 C         141.3507  140.3013  168.3322 C.ar    1  UNL1        0.0165
     12 C         139.9459  140.1513  167.8284 C.ar    1  UNL1        0.1345
     13 C         138.8043  140.0833  168.7990 C.ar    1  UNL1        0.0366
     14 C         139.0676  140.1653  170.2734 C.ar    1  UNL1        0.0032
     15 C         140.4725  140.3153  170.7772 C.ar    1  UNL1        0.0044
     16 C         141.6140  140.3833  169.8065 C.ar    1  UNL1        0.0521
     17 C         143.0190  140.5333  170.3104 C.2     1  UNL1        0.2425
     18 N         143.6638  139.4173  171.0775 N.am    1  UNL1       -0.3253
     19 O         143.7790  141.7994  170.0470 O.2     1  UNL1       -0.2704
     20 H         143.1649  138.5864  171.2504 H       1  UNL1        0.1453
     21 H         144.5858  139.5158  171.4082 H       1  UNL1        0.1453
     22 C         139.3952  141.2341  165.6902 C.3     1  UNL1        0.0991
     23 C         139.7603  139.9801  164.9524 C.ar    1  UNL1       -0.0061
     24 C         138.7809  138.8472  164.8685 C.ar    1  UNL1       -0.0029
     25 C         139.1460  137.5933  164.1308 C.ar    1  UNL1       -0.0003
     26 C         140.4905  137.4722  163.4770 C.ar    1  UNL1       -0.0000
     27 C         141.4701  138.6052  163.5610 C.ar    1  UNL1       -0.0003
     28 C         141.1049  139.8591  164.2987 C.ar    1  UNL1       -0.0029
@<TRIPOS>BOND
     1    10    11    1
     2    11    12   ar
     3    12     9    1
     4     1     9    1
     5     1     2    1
     6     3     2    1
     7     3     4    1
     8     4     5    1
     9     6     5    1
    10     6     7    1
    11     6     8    1
    12     8    22    1
    13    22    23    1
    14    23    24   ar
    15    24    25   ar
    16    25    26   ar
    17    26    27   ar
    18    27    28   ar
    19    12    13   ar
    20    13    14   ar
    21    14    15   ar
    22    15    16   ar
    23    16    17    1
    24    17    18   am
    25    17    19    2
    26    16    11   ar
    27     7     1    1
    28    28    23   ar
    29     8     3    1
    30    18    20    1
    31    18    21    1
@<TRIPOS>MOLECULE
*****
 28 31 0 0 0
SMALL
GASTEIGER

@<TRIPOS>ATOM
      1 C         140.2289  141.3290  166.4441 C.3     1  UNL1        0.1686
      2 C         139.5056  140.1616  167.0473 C.3     1  UNL1        0.0595
      3 C         139.2852  140.1005  168.5298 C.3     1  UNL1        0.0614
      4 C         139.2943  140.4480  169.9889 C.3     1  UNL1        0.0175
      5 C         140.0022  141.7608  170.1483 C.3     1  UNL1        0.0175
      6 C         140.4306  142.2247  168.7876 C.3     1  UNL1        0.0614
      7 C         140.7318  142.4354  167.3234 C.3     1  UNL1        0.0595
      8 N         139.9875  141.1985  167.7873 N.3     1  UNL1       -0.2713
      9 O         140.4494  141.3902  164.9616 O.3     1  UNL1       -0.4794
     10 C         143.0845  142.9799  163.7722 C.3     1  UNL1        0.0344
     11 C         142.7878  141.5109  163.8359 C.ar    1  UNL1        0.0165
     12 C         141.6341  140.7023  164.3506 C.ar    1  UNL1        0.1345
     13 C         141.6649  139.2057  164.2542 C.ar    1  UNL1        0.0366
     14 C         142.8496  138.5178  163.6431 C.ar    1  UNL1        0.0032
     15 C         144.0033  139.3265  163.1285 C.ar    1  UNL1        0.0044
     16 C         143.9724  140.8231  163.2249 C.ar    1  UNL1        0.0521
     17 C         145.1263  141.6318  162.7102 C.2     1  UNL1        0.2425
     18 N         146.3308  141.8550  163.5756 N.am    1  UNL1       -0.3253
     19 O         145.0754  142.2170  161.3300 O.2     1  UNL1       -0.2704
     20 H         146.3641  141.4709  164.4814 H       1  UNL1        0.1453
     21 H         147.0881  142.3858  163.2378 H       1  UNL1        0.1453
     22 C         140.2079  141.2596  166.3049 C.3     1  UNL1        0.0991
     23 C         139.4163  142.2202  165.4678 C.ar    1  UNL1       -0.0061
     24 C         139.8088  143.6669  165.4129 C.ar    1  UNL1       -0.0029
     25 C         139.0173  144.6274  164.5759 C.ar    1  UNL1       -0.0003
     26 C         137.8332  144.1414  163.7938 C.ar    1  UNL1       -0.0000
     27 C         137.4406  142.6946  163.8488 C.ar    1  UNL1       -0.0003
     28 C         138.2323  141.7341  164.6858 C.ar    1  UNL1       -0.0029
@<TRIPOS>BOND
     1    10    11    1
     2    11    12   ar
     3    12     9    1
     4     1     9    1
     5     1     2    1
     6     3     2    1
     7     3     4    1
     8     4     5    1
     9     6     5    1
    10     6     7    1
    11     6     8    1
    12     8    22    1
    13    22    23    1
    14    23    24   ar
    15    24    25   ar
    16    25    26   ar
    17    26    27   ar
    18    27    28   ar
    19    12    13   ar
    20    13    14   ar
    21    14    15   ar
    22    15    16   ar
    23    16    17    1
    24    17    18   am
    25    17    19    2
    26    16    11   ar
    27     7     1    1
    28    28    23   ar
    29     8     3    1
    30    18    20    1
    31    18    21    1
@<TRIPOS>MOLECULE
*****
 28 31 0 0 0
SMALL
GASTEIGER

@<TRIPOS>ATOM
      1 C         141.9554  141.7939  167.0651 C.3     1  UNL1        0.1686
      2 C         141.0410  140.6434  167.3652 C.3     1  UNL1        0.0595
      3 C         141.1795  139.8922  168.6561 C.3     1  UNL1        0.0614
      4 C         141.6623  139.4542  170.0070 C.3     1  UNL1        0.0175
      5 C         142.7982  140.3490  170.4058 C.3     1  UNL1        0.0175
      6 C         143.0175  141.3400  169.3014 C.3     1  UNL1        0.0614
      7 C         143.0084  142.1932  168.0560 C.3     1  UNL1        0.0595
      8 N         142.0171  141.0577  168.2199 N.3     1  UNL1       -0.2713
      9 O         141.8169  142.5452  165.7741 O.3     1  UNL1       -0.4794
     10 C         140.0452  141.2296  163.3214 C.3     1  UNL1        0.0344
     11 C         139.7423  142.3938  164.2175 C.ar    1  UNL1        0.0165
     12 C         140.4742  143.0585  165.3455 C.ar    1  UNL1        0.1345
     13 C         139.8635  144.2365  166.0449 C.ar    1  UNL1        0.0366
     14 C         138.5208  144.7498  165.6162 C.ar    1  UNL1        0.0032
     15 C         137.7889  144.0851  164.4882 C.ar    1  UNL1        0.0044
     16 C         138.3997  142.9070  163.7888 C.ar    1  UNL1        0.0521
     17 C         137.6678  142.2423  162.6607 C.2     1  UNL1        0.2425
     18 N         136.8900  140.9841  162.9095 N.am    1  UNL1       -0.3253
     19 O         137.7137  142.8358  161.2839 O.2     1  UNL1       -0.2704
     20 H         136.8600  140.5946  163.8131 H       1  UNL1        0.1453
     21 H         136.4097  140.5478  162.1691 H       1  UNL1        0.1453
     22 C         141.8785  141.8089  166.9290 C.3     1  UNL1        0.0991
     23 C         142.9894  141.7801  165.9215 C.ar    1  UNL1       -0.0061
     24 C         143.2991  140.5120  165.1826 C.ar    1  UNL1       -0.0029
     25 C         144.4100  140.4831  164.1752 C.ar    1  UNL1       -0.0003
     26 C         145.2112  141.7224  163.9065 C.ar    1  UNL1       -0.0000
     27 C         144.9015  142.9906  164.6454 C.ar    1  UNL1       -0.0003
     28 C         143.7905  143.0194  165.6529 C.ar    1  UNL1       -0.0029
@<TRIPOS>BOND
     1    10    11    1
     2    11    12   ar
     3    12     9    1
     4     1     9    1
     5     1     2    1
     6     3     2    1
     7     3     4    1
     8     4     5    1
     9     6     5    1
    10     6     7    1
    11     6     8    1
    12     8    22    1
    13    22    23    1
    14    23    24   ar
    15    24    25   ar
    16    25    26   ar
    17    26    27   ar
    18    27    28   ar
    19    12    13   ar
    20    13    14   ar
    21    14    15   ar
    22    15    16   ar
    23    16    17    1
    24    17    18   am
    25    17    19    2
    26    16    11   ar
    27     7     1    1
    28    28    23   ar
    29     8     3    1
    30    18    20    1
    31    18    21    1
@<TRIPOS>MOLECULE
*****
 28 31 0 0 0
SMALL
GASTEIGER

@<TRIPOS>ATOM
      1 C         140.8661  140.4131  166.6171 C.3     1  UNL1        0.1686
      2 C         139.8246  140.4320  167.6964 C.3     1  UNL1        0.0595
      3 C         140.1997  140.0854  169.1068 C.3     1  UNL1        0.0614
      4 C         140.9950  139.6873  170.3146 C.3     1  UNL1        0.0175
      5 C         142.4142  139.4654  169.8826 C.3     1  UNL1        0.0175
      6 C         142.4961  139.7265  168.4078 C.3     1  UNL1        0.0614
      7 C         142.2828  140.0477  166.9482 C.3     1  UNL1        0.0595
      8 N         141.1274  140.1096  167.9283 N.3     1  UNL1       -0.2713
      9 O         140.4910  140.7597  165.2067 O.3     1  UNL1       -0.4794
     10 C         142.6983  142.0472  163.1196 C.3     1  UNL1        0.0344
     11 C         141.5304  142.6877  163.8095 C.ar    1  UNL1        0.0165
     12 C         140.4838  142.1926  164.7630 C.ar    1  UNL1        0.1345
     13 C         139.4299  143.1302  165.2729 C.ar    1  UNL1        0.0366
     14 C         139.4227  144.5631  164.8293 C.ar    1  UNL1        0.0032
     15 C         140.4693  145.0583  163.8758 C.ar    1  UNL1        0.0044
     16 C         141.5232  144.1205  163.3659 C.ar    1  UNL1        0.0521
     17 C         142.5700  144.6158  162.4123 C.2     1  UNL1        0.2425
     18 N         143.8166  145.2638  162.9375 N.am    1  UNL1       -0.3253
     19 O         142.3699  144.4630  160.9336 O.2     1  UNL1       -0.2704
     20 H         143.9478  145.3641  163.9080 H       1  UNL1        0.1453
     21 H         144.5036  145.5889  162.3117 H       1  UNL1        0.1453
     22 C         140.7522  140.4562  166.5179 C.3     1  UNL1        0.0991
     23 C         140.6162  139.3722  165.4900 C.ar    1  UNL1       -0.0061
     24 C         139.2690  138.7817  165.1966 C.ar    1  UNL1       -0.0029
     25 C         139.1329  137.6978  164.1688 C.ar    1  UNL1       -0.0003
     26 C         140.3442  137.2043  163.4344 C.ar    1  UNL1       -0.0000
     27 C         141.6915  137.7948  163.7278 C.ar    1  UNL1       -0.0003
     28 C         141.8274  138.8788  164.7557 C.ar    1  UNL1       -0.0029
@<TRIPOS>BOND
     1    10    11    1
     2    11    12   ar
     3    12     9    1
     4     1     9    1
     5     1     2    1
     6     3     2    1
     7     3     4    1
     8     4     5    1
     9     6     5    1
    10     6     7    1
    11     6     8    1
    12     8    22    1
    13    22    23    1
    14    23    24   ar
    15    24    25   ar
    16    25    26   ar
    17    26    27   ar
    18    27    28   ar
    19    12    13   ar
    20    13    14   ar
    21    14    15   ar
    22    15    16   ar
    23    16    17    1
    24    17    18   am
    25    17    19    2
    26    16    11   ar
    27     7     1    1
    28    28    23   ar
    29     8     3    1
    30    18    20    1
    31    18    21    1
@<TRIPOS>MOLECULE
*****
 28 31 0 0 0
SMALL
GASTEIGER

@<TRIPOS>ATOM
      1 C         141.7894  142.4080  164.6379 C.3     1  UNL1        0.1686
      2 C         142.9114  143.3717  164.8872 C.3     1  UNL1        0.0595
      3 C         143.8295  143.7601  163.7664 C.3     1  UNL1        0.0614
      4 C         144.4662  143.8548  162.4115 C.3     1  UNL1        0.0175
      5 C         143.7006  142.9662  161.4765 C.3     1  UNL1        0.0175
      6 C         142.5908  142.3222  162.2536 C.3     1  UNL1        0.0614
      7 C         141.5855  141.8326  163.2678 C.3     1  UNL1        0.0595
      8 N         142.6705  142.8129  163.6688 N.3     1  UNL1       -0.2713
      9 O         140.8712  142.0196  165.7588 O.3     1  UNL1       -0.4794
     10 C         140.5562  143.1642  168.8371 C.3     1  UNL1        0.0344
     11 C         141.2251  141.9207  168.3308 C.ar    1  UNL1        0.0165
     12 C         141.4183  141.3223  166.9690 C.ar    1  UNL1        0.1345
     13 C         142.1584  140.0265  166.8173 C.ar    1  UNL1        0.0366
     14 C         142.7055  139.3292  168.0275 C.ar    1  UNL1        0.0032
     15 C         142.5123  139.9277  169.3893 C.ar    1  UNL1        0.0044
     16 C         141.7720  141.2235  169.5409 C.ar    1  UNL1        0.0521
     17 C         141.5788  141.8219  170.9028 C.2     1  UNL1        0.2425
     18 N         142.5562  142.8340  171.4227 N.am    1  UNL1       -0.3253
     19 O         140.4083  141.4082  171.7446 O.2     1  UNL1       -0.2704
     20 H         143.3244  143.1055  170.8702 H       1  UNL1        0.1453
     21 H         142.4294  143.2268  172.3165 H       1  UNL1        0.1453
     22 C         141.7524  142.4245  164.7896 C.3     1  UNL1        0.0991
     23 C         140.3362  142.9187  164.8046 C.ar    1  UNL1       -0.0061
     24 C         139.2176  142.0016  164.4077 C.ar    1  UNL1       -0.0029
     25 C         137.8015  142.4958  164.4227 C.ar    1  UNL1       -0.0003
     26 C         137.5040  143.9071  164.8345 C.ar    1  UNL1       -0.0000
     27 C         138.6226  144.8243  165.2314 C.ar    1  UNL1       -0.0003
     28 C         140.0388  144.3300  165.2164 C.ar    1  UNL1       -0.0029
@<TRIPOS>BOND
     1    10    11    1
     2    11    12   ar
     3    12     9    1
     4     1     9    1
     5     1     2    1
     6     3     2    1
     7     3     4    1
     8     4     5    1
     9     6     5    1
    10     6     7    1
    11     6     8    1
    12     8    22    1
    13    22    23    1
    14    23    24   ar
    15    24    25   ar
    16    25    26   ar
    17    26    27   ar
    18    27    28   ar
    19    12    13   ar
    20    13    14   ar
    21    14    15   ar
    22    15    16   ar
    23    16    17    1
    24    17    18   am
    25    17    19    2
    26    16    11   ar
    27     7     1    1
    28    28    23   ar
    29     8     3    1
    30    18    20    1
    31    18    21    1
