@<TRIPOS>MOLECULE
*****
 28 30 0 0 0
SMALL
GASTEIGER

@<TRIPOS>ATOM
      1 C         139.1340  139.0292  163.6654 C.ar    1  UNL1       -0.0145
      2 C         138.4629  138.2238  162.5926 C.ar    1  UNL1       -0.0026
      3 C         139.0555  138.1672  161.2158 C.ar    1  UNL1        0.0144
      4 C         140.3192  138.9160  160.9118 C.ar    1  UNL1        0.0505
      5 C         140.9903  139.7214  161.9846 C.ar    1  UNL1        0.0144
      6 C         140.3977  139.7780  163.3614 C.ar    1  UNL1       -0.0026
      7 C         138.5414  139.0859  165.0422 C.3     1  UNL1        0.0875
      8 C         138.6544  137.5942  165.1523 C.3     1  UNL1        0.0127
      9 C         138.0619  137.6509  166.5291 C.3     1  UNL1        0.0016
     10 C         137.9489  139.1426  166.4190 C.3     1  UNL1        0.0127
     11 N         137.4577  141.1868  163.9644 N.am    1  UNL1       -0.3041
     12 C         138.4284  140.5775  164.9322 C.2     1  UNL1        0.2253
     13 O         139.2861  141.4600  165.7899 O.2     1  UNL1       -0.2748
     14 H         136.8947  140.6076  163.4015 H       1  UNL1        0.1494
     15 C         137.3447  142.6784  163.8543 C.3     1  UNL1        0.0894
     16 C         138.3677  142.5837  161.4680 C.3     1  UNL1        0.0018
     17 C         137.8480  143.3803  162.6279 C.3     1  UNL1        0.0212
     18 N         140.9118  138.8593  159.5349 N.am    1  UNL1       -0.2804
     19 C         142.1868  138.1057  159.2976 C.2     1  UNL1        0.2495
     20 O         142.8692  137.4087  160.4370 O.2     1  UNL1       -0.2698
     21 H         140.4638  139.3168  158.7870 H       1  UNL1        0.1552
     22 C         142.7793  138.0491  157.9207 C.ar    1  UNL1        0.0545
     23 C         143.2579  139.3066  157.2578 C.ar    1  UNL1        0.0046
     24 C         143.8505  139.2499  155.8810 C.ar    1  UNL1        0.0010
     25 C         143.9644  137.9357  155.1671 C.ar    1  UNL1        0.0114
     26 C         143.4858  136.6781  155.8299 C.ar    1  UNL1        0.0578
     27 CL        143.5998  135.3638  155.1160 Cl      1  UNL1       -0.0822
     28 C         142.8933  136.7348  157.2067 C.ar    1  UNL1        0.0159
@<TRIPOS>BOND
     1    16    17    1
     2    17    15    1
     3    15    11    1
     4    11    12   am
     5    12    13    2
     6    12     7    1
     7     7     1    1
     8     1     2   ar
     9     2     3   ar
    10     3     4   ar
    11     4    18    1
    12    18    19   am
    13    19    20    2
    14    19    22    1
    15    22    23   ar
    16    23    24   ar
    17    24    25   ar
    18    25    26   ar
    19    26    27    1
    20    26    28   ar
    21     4     5   ar
    22     5     6   ar
    23     7     8    1
    24     8     9    1
    25     9    10    1
    26    10     7    1
    27     6     1   ar
    28    28    22   ar
    29    11    14    1
    30    18    21    1
@<TRIPOS>MOLECULE
*****
 28 30 0 0 0
SMALL
GASTEIGER

@<TRIPOS>ATOM
      1 C         139.1370  138.9940  163.6168 C.ar    1  UNL1       -0.0145
      2 C         140.3907  139.7548  163.3018 C.ar    1  UNL1       -0.0026
      3 C         140.9812  139.6902  161.9244 C.ar    1  UNL1        0.0144
      4 C         140.3179  138.8648  160.8621 C.ar    1  UNL1        0.0505
      5 C         139.0642  138.1039  161.1770 C.ar    1  UNL1        0.0144
      6 C         138.4737  138.1686  162.5544 C.ar    1  UNL1       -0.0026
      7 C         138.5465  139.0586  164.9942 C.3     1  UNL1        0.0875
      8 C         138.6714  137.5690  165.1176 C.3     1  UNL1        0.0127
      9 C         138.0809  137.6336  166.4950 C.3     1  UNL1        0.0016
     10 C         137.9560  139.1232  166.3715 C.3     1  UNL1        0.0127
     11 N         137.4643  141.1411  163.8796 N.am    1  UNL1       -0.3041
     12 C         138.4216  140.5483  164.8707 C.2     1  UNL1        0.2253
     13 O         139.2539  141.4452  165.7383 O.2     1  UNL1       -0.2748
     14 H         136.9180  140.5524  163.3102 H       1  UNL1        0.1494
     15 C         137.3394  142.6307  163.7562 C.3     1  UNL1        0.0894
     16 C         138.3072  142.5498  161.3464 C.3     1  UNL1        0.0018
     17 C         137.9116  143.3349  162.5617 C.3     1  UNL1        0.0212
     18 N         140.9084  138.8002  159.4846 N.am    1  UNL1       -0.2804
     19 C         142.1873  138.0520  159.2513 C.2     1  UNL1        0.2495
     20 O         142.8759  137.3685  160.3952 O.2     1  UNL1       -0.2698
     21 H         140.4565  139.2488  158.7338 H       1  UNL1        0.1552
     22 C         142.7779  137.9874  157.8738 C.ar    1  UNL1        0.0545
     23 C         142.9264  136.6645  157.1828 C.ar    1  UNL1        0.0046
     24 C         143.5168  136.5999  155.8054 C.ar    1  UNL1        0.0010
     25 C         143.9588  137.8584  155.1192 C.ar    1  UNL1        0.0114
     26 C         143.8103  139.1813  155.8102 C.ar    1  UNL1        0.0578
     27 CL        144.2523  140.4398  155.1239 Cl      1  UNL1       -0.0822
     28 C         143.2198  139.2459  157.1876 C.ar    1  UNL1        0.0159
@<TRIPOS>BOND
     1    16    17    1
     2    17    15    1
     3    15    11    1
     4    11    12   am
     5    12    13    2
     6    12     7    1
     7     7     1    1
     8     1     2   ar
     9     2     3   ar
    10     3     4   ar
    11     4    18    1
    12    18    19   am
    13    19    20    2
    14    19    22    1
    15    22    23   ar
    16    23    24   ar
    17    24    25   ar
    18    25    26   ar
    19    26    27    1
    20    26    28   ar
    21     4     5   ar
    22     5     6   ar
    23     7     8    1
    24     8     9    1
    25     9    10    1
    26    10     7    1
    27     6     1   ar
    28    28    22   ar
    29    11    14    1
    30    18    21    1
@<TRIPOS>MOLECULE
*****
 28 30 0 0 0
SMALL
GASTEIGER

@<TRIPOS>ATOM
      1 C         141.7197  143.4924  163.7771 C.ar    1  UNL1       -0.0145
      2 C         141.1115  144.8511  163.5927 C.ar    1  UNL1       -0.0026
      3 C         141.0570  145.4693  162.2271 C.ar    1  UNL1        0.0144
      4 C         141.6106  144.7287  161.0460 C.ar    1  UNL1        0.0505
      5 C         142.2188  143.3701  161.2304 C.ar    1  UNL1        0.0144
      6 C         142.2733  142.7519  162.5959 C.ar    1  UNL1       -0.0026
      7 C         141.7742  142.8741  165.1427 C.3     1  UNL1        0.0875
      8 C         143.2652  143.0373  165.1571 C.3     1  UNL1        0.0127
      9 C         143.3197  142.4191  166.5226 C.3     1  UNL1        0.0016
     10 C         141.8287  142.2559  166.5083 C.3     1  UNL1        0.0127
     11 N         139.6593  141.5850  164.3581 N.am    1  UNL1       -0.3041
     12 C         140.2832  142.7109  165.1283 C.2     1  UNL1        0.2253
     13 O         139.4160  143.6735  165.8841 O.2     1  UNL1       -0.2748
     14 H         140.2285  140.9532  163.8620 H       1  UNL1        0.1494
     15 C         138.1684  141.4218  164.3437 C.3     1  UNL1        0.0894
     16 C         137.9378  143.1427  162.4109 C.3     1  UNL1        0.0018
     17 C         137.3570  142.0377  163.2425 C.3     1  UNL1        0.0212
     18 N         141.5561  145.3470  159.6803 N.am    1  UNL1       -0.2804
     19 C         140.4713  144.9539  158.7219 C.2     1  UNL1        0.2495
     20 O         139.4411  143.9426  159.1289 O.2     1  UNL1       -0.2698
     21 H         142.2323  146.0108  159.4131 H       1  UNL1        0.1552
     22 C         140.4168  145.5722  157.3562 C.ar    1  UNL1        0.0545
     23 C         141.1803  144.9547  156.2224 C.ar    1  UNL1        0.0046
     24 C         141.1258  145.5730  154.8568 C.ar    1  UNL1        0.0010
     25 C         140.3077  146.8087  154.6252 C.ar    1  UNL1        0.0114
     26 C         139.5441  147.4262  155.7590 C.ar    1  UNL1        0.0578
     27 CL        138.7260  148.6619  155.5274 Cl      1  UNL1       -0.0822
     28 C         139.5987  146.8079  157.1246 C.ar    1  UNL1        0.0159
@<TRIPOS>BOND
     1    16    17    1
     2    17    15    1
     3    15    11    1
     4    11    12   am
     5    12    13    2
     6    12     7    1
     7     7     1    1
     8     1     2   ar
     9     2     3   ar
    10     3     4   ar
    11     4    18    1
    12    18    19   am
    13    19    20    2
    14    19    22    1
    15    22    23   ar
    16    23    24   ar
    17    24    25   ar
    18    25    26   ar
    19    26    27    1
    20    26    28   ar
    21     4     5   ar
    22     5     6   ar
    23     7     8    1
    24     8     9    1
    25     9    10    1
    26    10     7    1
    27     6     1   ar
    28    28    22   ar
    29    11    14    1
    30    18    21    1
@<TRIPOS>MOLECULE
*****
 28 30 0 0 0
SMALL
GASTEIGER

@<TRIPOS>ATOM
      1 C         143.2064  142.7637  161.2382 C.ar    1  UNL1       -0.0145
      2 C         142.4751  141.5568  161.7467 C.ar    1  UNL1       -0.0026
      3 C         142.5594  141.1849  163.1974 C.ar    1  UNL1        0.0144
      4 C         143.3751  142.0198  164.1395 C.ar    1  UNL1        0.0505
      5 C         144.1064  143.2266  163.6310 C.ar    1  UNL1        0.0144
      6 C         144.0221  143.5986  162.1803 C.ar    1  UNL1       -0.0026
      7 C         143.1221  143.1357  159.7874 C.3     1  UNL1        0.0875
      8 C         144.4566  142.4949  159.5455 C.3     1  UNL1        0.0127
      9 C         144.3723  142.8669  158.0949 C.3     1  UNL1        0.0016
     10 C         143.0378  143.5077  158.3368 C.3     1  UNL1        0.0127
     11 N         141.7120  145.1412  160.6472 N.am    1  UNL1       -0.3041
     12 C         141.7877  143.7764  160.0293 C.2     1  UNL1        0.2253
     13 O         140.5289  143.0525  159.6533 O.2     1  UNL1       -0.2748
     14 H         142.5382  145.6164  160.8940 H       1  UNL1        0.1494
     15 C         140.3775  145.7820  160.8891 C.3     1  UNL1        0.0894
     16 C         140.4392  144.9847  163.3611 C.3     1  UNL1        0.0018
     17 C         139.7205  145.6624  162.2323 C.3     1  UNL1        0.0212
     18 N         143.4594  141.6478  165.5903 N.am    1  UNL1       -0.2804
     19 C         142.2748  141.8531  166.4872 C.2     1  UNL1        0.2495
     20 O         141.0059  142.4304  165.9335 O.2     1  UNL1       -0.2698
     21 H         144.2922  141.2689  165.9537 H       1  UNL1        0.1552
     22 C         142.3591  141.4811  167.9380 C.ar    1  UNL1        0.0545
     23 C         142.2768  142.5459  168.9913 C.ar    1  UNL1        0.0046
     24 C         142.3611  142.1738  170.4419 C.ar    1  UNL1        0.0010
     25 C         142.5277  140.7371  170.8393 C.ar    1  UNL1        0.0114
     26 C         142.6100  139.6723  169.7860 C.ar    1  UNL1        0.0578
     27 CL        142.7766  138.2355  170.1834 Cl      1  UNL1       -0.0822
     28 C         142.5257  140.0443  168.3353 C.ar    1  UNL1        0.0159
@<TRIPOS>BOND
     1    16    17    1
     2    17    15    1
     3    15    11    1
     4    11    12   am
     5    12    13    2
     6    12     7    1
     7     7     1    1
     8     1     2   ar
     9     2     3   ar
    10     3     4   ar
    11     4    18    1
    12    18    19   am
    13    19    20    2
    14    19    22    1
    15    22    23   ar
    16    23    24   ar
    17    24    25   ar
    18    25    26   ar
    19    26    27    1
    20    26    28   ar
    21     4     5   ar
    22     5     6   ar
    23     7     8    1
    24     8     9    1
    25     9    10    1
    26    10     7    1
    27     6     1   ar
    28    28    22   ar
    29    11    14    1
    30    18    21    1
@<TRIPOS>MOLECULE
*****
 28 30 0 0 0
SMALL
GASTEIGER

@<TRIPOS>ATOM
      1 C         141.5146  143.1804  164.5245 C.ar    1  UNL1       -0.0145
      2 C         140.7026  142.3735  163.5552 C.ar    1  UNL1       -0.0026
      3 C         140.4154  142.9134  162.1856 C.ar    1  UNL1        0.0144
      4 C         140.9402  144.2604  161.7852 C.ar    1  UNL1        0.0505
      5 C         141.7522  145.0673  162.7544 C.ar    1  UNL1        0.0144
      6 C         142.0394  144.5273  164.1240 C.ar    1  UNL1       -0.0026
      7 C         141.8018  142.6405  165.8942 C.3     1  UNL1        0.0875
      8 C         140.3778  142.8929  166.2923 C.3     1  UNL1        0.0127
      9 C         140.6651  142.3530  167.6620 C.3     1  UNL1        0.0016
     10 C         142.0890  142.1005  167.2638 C.3     1  UNL1        0.0127
     11 N         143.5635  141.2176  164.6207 N.am    1  UNL1       -0.3041
     12 C         143.2257  142.3880  165.4960 C.2     1  UNL1        0.2253
     13 O         144.3119  143.3059  165.9731 O.2     1  UNL1       -0.2748
     14 H         142.8506  140.6151  164.3076 H       1  UNL1        0.1494
     15 C         144.9875  140.9651  164.2225 C.3     1  UNL1        0.0894
     16 C         144.7720  142.6168  162.2287 C.3     1  UNL1        0.0018
     17 C         145.6261  141.7993  163.1518 C.3     1  UNL1        0.0212
     18 N         140.6530  144.8003  160.4155 N.am    1  UNL1       -0.2804
     19 C         141.6447  144.6014  159.3078 C.2     1  UNL1        0.2495
     20 O         142.9235  143.8626  159.5697 O.2     1  UNL1       -0.2698
     21 H         139.8136  145.2852  160.2436 H       1  UNL1        0.1552
     22 C         141.3574  145.1414  157.9381 C.ar    1  UNL1        0.0545
     23 C         140.1831  146.0489  157.7207 C.ar    1  UNL1        0.0046
     24 C         139.8959  146.5888  156.3511 C.ar    1  UNL1        0.0010
     25 C         140.7831  146.2212  155.1988 C.ar    1  UNL1        0.0114
     26 C         141.9575  145.3137  155.4162 C.ar    1  UNL1        0.0578
     27 CL        142.8447  144.9461  154.2639 Cl      1  UNL1       -0.0822
     28 C         142.2446  144.7738  156.7858 C.ar    1  UNL1        0.0159
@<TRIPOS>BOND
     1    16    17    1
     2    17    15    1
     3    15    11    1
     4    11    12   am
     5    12    13    2
     6    12     7    1
     7     7     1    1
     8     1     2   ar
     9     2     3   ar
    10     3     4   ar
    11     4    18    1
    12    18    19   am
    13    19    20    2
    14    19    22    1
    15    22    23   ar
    16    23    24   ar
    17    24    25   ar
    18    25    26   ar
    19    26    27    1
    20    26    28   ar
    21     4     5   ar
    22     5     6   ar
    23     7     8    1
    24     8     9    1
    25     9    10    1
    26    10     7    1
    27     6     1   ar
    28    28    22   ar
    29    11    14    1
    30    18    21    1
@<TRIPOS>MOLECULE
*****
 28 30 0 0 0
SMALL
GASTEIGER

@<TRIPOS>ATOM
      1 C         142.0367  143.4691  163.7333 C.ar    1  UNL1       -0.0145
      2 C         141.7238  142.3905  162.7390 C.ar    1  UNL1       -0.0026
      3 C         140.9888  142.7258  161.4752 C.ar    1  UNL1        0.0144
      4 C         140.5667  144.1397  161.2057 C.ar    1  UNL1        0.0505
      5 C         140.8796  145.2183  162.1999 C.ar    1  UNL1        0.0144
      6 C         141.6146  144.8830  163.4637 C.ar    1  UNL1       -0.0026
      7 C         142.7718  143.1338  164.9972 C.3     1  UNL1        0.0875
      8 C         144.0008  143.8057  164.4607 C.3     1  UNL1        0.0127
      9 C         144.7358  143.4704  165.7245 C.3     1  UNL1        0.0016
     10 C         143.5067  142.7985  166.2610 C.3     1  UNL1        0.0127
     11 N         141.5629  140.9929  165.8372 N.am    1  UNL1       -0.3041
     12 C         141.5427  142.4618  165.5336 C.2     1  UNL1        0.2253
     13 O         140.2934  143.2587  165.7666 O.2     1  UNL1       -0.2748
     14 H         142.3829  140.4699  165.6843 H       1  UNL1        0.1494
     15 C         140.3338  140.3210  166.3737 C.3     1  UNL1        0.0894
     16 C         140.2016  141.3276  168.7652 C.3     1  UNL1        0.0018
     17 C         140.1644  140.1376  167.8528 C.3     1  UNL1        0.0212
     18 N         139.8316  144.4750  159.9418 N.am    1  UNL1       -0.2804
     19 C         140.5832  144.9956  158.7526 C.2     1  UNL1        0.2495
     20 O         142.0699  145.1808  158.8273 O.2     1  UNL1       -0.2698
     21 H         138.8559  144.3535  159.8927 H       1  UNL1        0.1552
     22 C         139.8482  145.3309  157.4887 C.ar    1  UNL1        0.0545
     23 C         139.2200  144.2391  156.6743 C.ar    1  UNL1        0.0046
     24 C         138.4850  144.5744  155.4105 C.ar    1  UNL1        0.0010
     25 C         138.3782  146.0015  154.9611 C.ar    1  UNL1        0.0114
     26 C         139.0063  147.0933  155.7755 C.ar    1  UNL1        0.0578
     27 CL        138.8995  148.5204  155.3261 Cl      1  UNL1       -0.0822
     28 C         139.7413  146.7580  157.0393 C.ar    1  UNL1        0.0159
@<TRIPOS>BOND
     1    16    17    1
     2    17    15    1
     3    15    11    1
     4    11    12   am
     5    12    13    2
     6    12     7    1
     7     7     1    1
     8     1     2   ar
     9     2     3   ar
    10     3     4   ar
    11     4    18    1
    12    18    19   am
    13    19    20    2
    14    19    22    1
    15    22    23   ar
    16    23    24   ar
    17    24    25   ar
    18    25    26   ar
    19    26    27    1
    20    26    28   ar
    21     4     5   ar
    22     5     6   ar
    23     7     8    1
    24     8     9    1
    25     9    10    1
    26    10     7    1
    27     6     1   ar
    28    28    22   ar
    29    11    14    1
    30    18    21    1
@<TRIPOS>MOLECULE
*****
 28 30 0 0 0
SMALL
GASTEIGER

@<TRIPOS>ATOM
      1 C         141.0791  143.4786  163.4106 C.ar    1  UNL1       -0.0145
      2 C         140.7954  142.6075  162.2228 C.ar    1  UNL1       -0.0026
      3 C         140.3952  143.2273  160.9168 C.ar    1  UNL1        0.0144
      4 C         140.2788  144.7181  160.7985 C.ar    1  UNL1        0.0505
      5 C         140.5625  145.5891  161.9862 C.ar    1  UNL1        0.0144
      6 C         140.9627  144.9694  163.2922 C.ar    1  UNL1       -0.0026
      7 C         141.4793  142.8589  164.7167 C.3     1  UNL1        0.0875
      8 C         142.8662  143.4056  164.5512 C.3     1  UNL1        0.0127
      9 C         143.2664  142.7859  165.8572 C.3     1  UNL1        0.0016
     10 C         141.8794  142.2392  166.0227 C.3     1  UNL1        0.0127
     11 N         139.8564  140.8323  164.8141 N.am    1  UNL1       -0.3041
     12 C         140.0924  142.3122  164.8822 C.2     1  UNL1        0.2253
     13 O         138.9413  143.2452  165.1157 O.2     1  UNL1       -0.2748
     14 H         140.6119  140.2200  164.6609 H       1  UNL1        0.1494
     15 C         138.4695  140.2856  164.9796 C.3     1  UNL1        0.0894
     16 C         138.1558  138.0142  166.2013 C.3     1  UNL1        0.0018
     17 C         138.1100  139.5135  166.2144 C.3     1  UNL1        0.0212
     18 N         139.8786  145.3378  159.4924 N.am    1  UNL1       -0.2804
     19 C         140.9016  145.5421  158.4146 C.2     1  UNL1        0.2495
     20 O         142.3247  145.1268  158.6428 O.2     1  UNL1       -0.2698
     21 H         138.9445  145.6104  159.3426 H       1  UNL1        0.1552
     22 C         140.5014  146.1618  157.1084 C.ar    1  UNL1        0.0545
     23 C         139.3743  147.1505  157.0615 C.ar    1  UNL1        0.0046
     24 C         138.9742  147.7702  155.7554 C.ar    1  UNL1        0.0010
     25 C         139.7011  147.4012  154.4963 C.ar    1  UNL1        0.0114
     26 C         140.8282  146.4125  154.5432 C.ar    1  UNL1        0.0578
     27 CL        141.5551  146.0435  153.2841 Cl      1  UNL1       -0.0822
     28 C         141.2283  145.7928  155.8493 C.ar    1  UNL1        0.0159
@<TRIPOS>BOND
     1    16    17    1
     2    17    15    1
     3    15    11    1
     4    11    12   am
     5    12    13    2
     6    12     7    1
     7     7     1    1
     8     1     2   ar
     9     2     3   ar
    10     3     4   ar
    11     4    18    1
    12    18    19   am
    13    19    20    2
    14    19    22    1
    15    22    23   ar
    16    23    24   ar
    17    24    25   ar
    18    25    26   ar
    19    26    27    1
    20    26    28   ar
    21     4     5   ar
    22     5     6   ar
    23     7     8    1
    24     8     9    1
    25     9    10    1
    26    10     7    1
    27     6     1   ar
    28    28    22   ar
    29    11    14    1
    30    18    21    1
@<TRIPOS>MOLECULE
*****
 28 30 0 0 0
SMALL
GASTEIGER

@<TRIPOS>ATOM
      1 C         138.7376  141.4064  162.5156 C.ar    1  UNL1       -0.0145
      2 C         137.6847  140.6219  161.7905 C.ar    1  UNL1       -0.0026
      3 C         138.0821  139.6098  160.7572 C.ar    1  UNL1        0.0144
      4 C         139.5323  139.3822  160.4490 C.ar    1  UNL1        0.0505
      5 C         140.5852  140.1668  161.1741 C.ar    1  UNL1        0.0144
      6 C         140.1879  141.1789  162.2074 C.ar    1  UNL1       -0.0026
      7 C         138.3403  142.4186  163.5489 C.3     1  UNL1        0.0875
      8 C         138.0046  143.3964  162.4621 C.3     1  UNL1        0.0127
      9 C         137.6073  144.4085  163.4955 C.3     1  UNL1        0.0016
     10 C         137.9430  143.4307  164.5822 C.3     1  UNL1        0.0127
     11 N         137.7530  140.2941  164.9243 N.am    1  UNL1       -0.3041
     12 C         138.6760  141.4408  164.6357 C.2     1  UNL1        0.2253
     13 O         139.9347  141.6096  165.4340 O.2     1  UNL1       -0.2748
     14 H         136.9269  140.1832  164.4004 H       1  UNL1        0.1494
     15 C         138.0888  139.3163  166.0111 C.3     1  UNL1        0.0894
     16 C         139.1497  137.7240  164.2534 C.3     1  UNL1        0.0018
     17 C         138.7536  138.0154  165.6705 C.3     1  UNL1        0.0212
     18 N         139.9296  138.3700  159.4157 N.am    1  UNL1       -0.2804
     19 C         139.9717  138.7546  157.9665 C.2     1  UNL1        0.2495
     20 O         139.6165  140.1513  157.5505 O.2     1  UNL1       -0.2698
     21 H         140.1628  137.4533  159.6887 H       1  UNL1        0.1552
     22 C         140.3691  137.7424  156.9331 C.ar    1  UNL1        0.0545
     23 C         139.4243  137.3955  155.8210 C.ar    1  UNL1        0.0046
     24 C         139.8216  136.3833  154.7877 C.ar    1  UNL1        0.0010
     25 C         141.1637  135.7182  154.8666 C.ar    1  UNL1        0.0114
     26 C         142.1085  136.0651  155.9788 C.ar    1  UNL1        0.0578
     27 CL        143.4506  135.3999  156.0576 Cl      1  UNL1       -0.0822
     28 C         141.7112  137.0772  157.0120 C.ar    1  UNL1        0.0159
@<TRIPOS>BOND
     1    16    17    1
     2    17    15    1
     3    15    11    1
     4    11    12   am
     5    12    13    2
     6    12     7    1
     7     7     1    1
     8     1     2   ar
     9     2     3   ar
    10     3     4   ar
    11     4    18    1
    12    18    19   am
    13    19    20    2
    14    19    22    1
    15    22    23   ar
    16    23    24   ar
    17    24    25   ar
    18    25    26   ar
    19    26    27    1
    20    26    28   ar
    21     4     5   ar
    22     5     6   ar
    23     7     8    1
    24     8     9    1
    25     9    10    1
    26    10     7    1
    27     6     1   ar
    28    28    22   ar
    29    11    14    1
    30    18    21    1
@<TRIPOS>MOLECULE
*****
 28 30 0 0 0
SMALL
GASTEIGER

@<TRIPOS>ATOM
      1 C         139.5682  138.5206  164.1557 C.ar    1  UNL1       -0.0145
      2 C         141.0618  138.6577  164.1723 C.ar    1  UNL1       -0.0026
      3 C         141.8501  138.4261  162.9173 C.ar    1  UNL1        0.0144
      4 C         141.1449  138.0575  161.6458 C.ar    1  UNL1        0.0505
      5 C         139.6513  137.9204  161.6293 C.ar    1  UNL1        0.0144
      6 C         138.8629  138.1519  162.8842 C.ar    1  UNL1       -0.0026
      7 C         138.7798  138.7521  165.4107 C.3     1  UNL1        0.0875
      8 C         138.4695  137.2865  165.4862 C.3     1  UNL1        0.0127
      9 C         137.6812  137.5181  166.7411 C.3     1  UNL1        0.0016
     10 C         137.9914  138.9837  166.6656 C.3     1  UNL1        0.0127
     11 N         139.9147  140.8660  166.4074 N.am    1  UNL1       -0.3041
     12 C         139.0900  140.2177  165.3351 C.2     1  UNL1        0.2253
     13 O         138.5757  141.0350  164.1873 O.2     1  UNL1       -0.2748
     14 H         140.2522  140.3296  167.1608 H       1  UNL1        0.1494
     15 C         140.2249  142.3316  166.3319 C.3     1  UNL1        0.0894
     16 C         142.7145  142.1735  165.6060 C.3     1  UNL1        0.0018
     17 C         141.3639  142.8144  165.4835 C.3     1  UNL1        0.0212
     18 N         141.9333  137.8260  160.3909 N.am    1  UNL1       -0.2804
     19 C         141.7782  138.7571  159.2252 C.2     1  UNL1        0.2495
     20 O         140.8347  139.9198  159.3144 O.2     1  UNL1       -0.2698
     21 H         142.5525  137.0628  160.3323 H       1  UNL1        0.1552
     22 C         142.5666  138.5256  157.9702 C.ar    1  UNL1        0.0545
     23 C         143.1793  139.6865  157.2445 C.ar    1  UNL1        0.0046
     24 C         143.9676  139.4549  155.9896 C.ar    1  UNL1        0.0010
     25 C         144.1433  138.0624  155.4604 C.ar    1  UNL1        0.0114
     26 C         143.5306  136.9015  156.1861 C.ar    1  UNL1        0.0578
     27 CL        143.7062  135.5089  155.6570 Cl      1  UNL1       -0.0822
     28 C         142.7422  137.1330  157.4410 C.ar    1  UNL1        0.0159
@<TRIPOS>BOND
     1    16    17    1
     2    17    15    1
     3    15    11    1
     4    11    12   am
     5    12    13    2
     6    12     7    1
     7     7     1    1
     8     1     2   ar
     9     2     3   ar
    10     3     4   ar
    11     4    18    1
    12    18    19   am
    13    19    20    2
    14    19    22    1
    15    22    23   ar
    16    23    24   ar
    17    24    25   ar
    18    25    26   ar
    19    26    27    1
    20    26    28   ar
    21     4     5   ar
    22     5     6   ar
    23     7     8    1
    24     8     9    1
    25     9    10    1
    26    10     7    1
    27     6     1   ar
    28    28    22   ar
    29    11    14    1
    30    18    21    1
