@<TRIPOS>MOLECULE
*****
 20 21 0 0 0
SMALL
GASTEIGER

@<TRIPOS>ATOM
      1 C         143.3061  142.8585  165.5489 C.2     1  UNL1        0.1567
      2 N         143.9599  142.9601  166.8951 N.2     1  UNL1       -0.2468
      3 C         143.0265  142.3686  167.9095 C.3     1  UNL1        0.1720
      4 C         143.1382  142.1950  169.3952 C.3     1  UNL1        0.1653
      5 O         144.3688  142.6622  170.1145 O.3     1  UNL1       -0.3798
      6 C         142.0193  141.5543  170.1618 C.3     1  UNL1        0.1688
      7 O         142.1310  141.3807  171.6474 O.3     1  UNL1       -0.3794
      8 C         140.7887  141.0871  169.4425 C.3     1  UNL1        0.1746
      9 O         140.6770  141.2607  167.9567 O.3     1  UNL1       -0.3402
     10 C         141.7959  141.9014  167.1903 C.3     1  UNL1        0.1938
     11 S         141.9687  142.2042  165.7313 S.3     1  UNL1       -0.0495
     12 H         144.2795  142.4763  171.0623 H       1  UNL1        0.2105
     13 H         142.9821  141.7333  171.9511 H       1  UNL1        0.2105
     14 C         139.6698  140.4463  170.2089 C.3     1  UNL1        0.1693
     15 O         139.9753  139.4900  171.3234 O.3     1  UNL1       -0.3794
     16 H         140.3993  138.6963  170.9612 H       1  UNL1        0.2105
     17 N         143.8876  143.3287  164.2486 N.pl3   1  UNL1       -0.2869
     18 C         143.7534  144.7666  163.8433 C.3     1  UNL1        0.1140
     19 C         145.7381  141.5403  163.8913 C.3     1  UNL1        0.0232
     20 C         144.6034  142.3609  163.3536 C.3     1  UNL1        0.0927
@<TRIPOS>BOND
     1    19    20    1
     2    20    17    1
     3    17    18    1
     4    17     1    1
     5     1     2    2
     6     3     2    1
     7     3     4    1
     8     4     5    1
     9     4     6    1
    10     6     7    1
    11     6     8    1
    12     8    14    1
    13    14    15    1
    14     8     9    1
    15    10     9    1
    16    10    11    1
    17    11     1    1
    18    10     3    1
    19     5    12    1
    20     7    13    1
    21    15    16    1
@<TRIPOS>MOLECULE
*****
 20 21 0 0 0
SMALL
GASTEIGER

@<TRIPOS>ATOM
      1 C         139.5535  140.0649  166.4371 C.2     1  UNL1        0.1567
      2 N         139.4309  139.5893  167.8544 N.2     1  UNL1       -0.2468
      3 C         140.4586  140.3100  168.6757 C.3     1  UNL1        0.1720
      4 C         140.8023  140.2466  170.1344 C.3     1  UNL1        0.1653
      5 O         140.0446  139.3255  171.0441 O.3     1  UNL1       -0.3798
      6 C         141.9037  141.1042  170.6834 C.3     1  UNL1        0.1688
      7 O         142.2474  141.0408  172.1421 O.3     1  UNL1       -0.3794
      8 C         142.6614  142.0253  169.7737 C.3     1  UNL1        0.1746
      9 O         142.3176  142.0887  168.3149 O.3     1  UNL1       -0.3402
     10 C         141.2162  141.2310  167.7660 C.3     1  UNL1        0.1938
     11 S         140.6568  141.0795  166.3825 S.3     1  UNL1       -0.0495
     12 H         140.3900  139.4065  171.9469 H       1  UNL1        0.2105
     13 H         141.6671  140.4010  172.5835 H       1  UNL1        0.2105
     14 C         143.7627  142.8829  170.3226 C.3     1  UNL1        0.1693
     15 O         143.4466  143.9726  171.3038 O.3     1  UNL1       -0.3794
     16 H         142.9116  144.6545  170.8684 H       1  UNL1        0.2105
     17 N         138.7191  139.6063  165.2780 N.pl3   1  UNL1       -0.2869
     18 C         137.9139  140.5997  164.4940 C.3     1  UNL1        0.1140
     19 C         139.9674  137.4374  164.5796 C.3     1  UNL1        0.0232
     20 C         138.6900  138.1543  164.9028 C.3     1  UNL1        0.0927
@<TRIPOS>BOND
     1    19    20    1
     2    20    17    1
     3    17    18    1
     4    17     1    1
     5     1     2    2
     6     3     2    1
     7     3     4    1
     8     4     5    1
     9     4     6    1
    10     6     7    1
    11     6     8    1
    12     8    14    1
    13    14    15    1
    14     8     9    1
    15    10     9    1
    16    10    11    1
    17    11     1    1
    18    10     3    1
    19     5    12    1
    20     7    13    1
    21    15    16    1
@<TRIPOS>MOLECULE
*****
 20 21 0 0 0
SMALL
GASTEIGER

@<TRIPOS>ATOM
      1 C         142.8693  139.5863  165.9022 C.2     1  UNL1        0.1567
      2 N         143.1475  139.0044  167.2565 N.2     1  UNL1       -0.2468
      3 C         142.4084  139.8227  168.2734 C.3     1  UNL1        0.1720
      4 C         142.3098  139.7180  169.7665 C.3     1  UNL1        0.1653
      5 O         143.0448  138.6303  170.4922 O.3     1  UNL1       -0.3798
      6 C         141.4761  140.7009  170.5338 C.3     1  UNL1        0.1688
      7 O         141.3774  140.5961  172.0269 O.3     1  UNL1       -0.3794
      8 C         140.7410  141.7886  169.8081 C.3     1  UNL1        0.1746
      9 O         140.8397  141.8933  168.3150 O.3     1  UNL1       -0.3402
     10 C         141.6734  140.9104  167.5477 C.3     1  UNL1        0.1938
     11 S         141.9582  140.7642  166.0822 S.3     1  UNL1       -0.0495
     12 H         142.8751  138.7050  171.4443 H       1  UNL1        0.2105
     13 H         141.9084  139.8447  172.3341 H       1  UNL1        0.2105
     14 C         139.9074  142.7715  170.5754 C.3     1  UNL1        0.1693
     15 O         140.0327  144.2400  170.2966 O.3     1  UNL1       -0.3794
     16 H         140.9179  144.5433  170.5526 H       1  UNL1        0.2105
     17 N         143.4076  139.0793  164.5972 N.pl3   1  UNL1       -0.2869
     18 C         142.5182  138.3073  163.6682 C.3     1  UNL1        0.1140
     19 C         145.3218  140.7552  164.0711 C.3     1  UNL1        0.0232
     20 C         144.8352  139.3443  164.2210 C.3     1  UNL1        0.0927
@<TRIPOS>BOND
     1    19    20    1
     2    20    17    1
     3    17    18    1
     4    17     1    1
     5     1     2    2
     6     3     2    1
     7     3     4    1
     8     4     5    1
     9     4     6    1
    10     6     7    1
    11     6     8    1
    12     8    14    1
    13    14    15    1
    14     8     9    1
    15    10     9    1
    16    10    11    1
    17    11     1    1
    18    10     3    1
    19     5    12    1
    20     7    13    1
    21    15    16    1
@<TRIPOS>MOLECULE
*****
 20 21 0 0 0
SMALL
GASTEIGER

@<TRIPOS>ATOM
      1 C         139.6878  139.5603  166.1803 C.2     1  UNL1        0.1567
      2 N         138.9698  139.7763  167.4794 N.2     1  UNL1       -0.2468
      3 C         139.8831  140.5391  168.3926 C.3     1  UNL1        0.1720
      4 C         139.7125  141.0340  169.7983 C.3     1  UNL1        0.1653
      5 O         138.4300  140.7786  170.5330 O.3     1  UNL1       -0.3798
      6 C         140.8246  141.7845  170.4693 C.3     1  UNL1        0.1688
      7 O         140.6541  142.2795  171.8749 O.3     1  UNL1       -0.3794
      8 C         142.1072  142.0400  169.7346 C.3     1  UNL1        0.1746
      9 O         142.2777  141.5449  168.3289 O.3     1  UNL1       -0.3402
     10 C         141.1656  140.7945  167.6579 C.3     1  UNL1        0.1938
     11 S         141.0449  140.1896  166.2906 S.3     1  UNL1       -0.0495
     12 H         138.4849  141.1619  171.4223 H       1  UNL1        0.2105
     13 H         139.7744  142.0321  172.2004 H       1  UNL1        0.2105
     14 C         143.2192  142.7904  170.4055 C.3     1  UNL1        0.1693
     15 O         142.9465  144.1168  171.0508 O.3     1  UNL1       -0.3794
     16 H         142.7020  144.7632  170.3702 H       1  UNL1        0.2105
     17 N         139.1442  138.8412  164.9813 N.pl3   1  UNL1       -0.2869
     18 C         138.8251  137.3780  165.0652 C.3     1  UNL1        0.1140
     19 C         137.8523  140.6362  163.6179 C.3     1  UNL1        0.0232
     20 C         138.9197  139.5854  163.6985 C.3     1  UNL1        0.0927
@<TRIPOS>BOND
     1    19    20    1
     2    20    17    1
     3    17    18    1
     4    17     1    1
     5     1     2    2
     6     3     2    1
     7     3     4    1
     8     4     5    1
     9     4     6    1
    10     6     7    1
    11     6     8    1
    12     8    14    1
    13    14    15    1
    14     8     9    1
    15    10     9    1
    16    10    11    1
    17    11     1    1
    18    10     3    1
    19     5    12    1
    20     7    13    1
    21    15    16    1
@<TRIPOS>MOLECULE
*****
 20 21 0 0 0
SMALL
GASTEIGER

@<TRIPOS>ATOM
      1 C         141.4497  141.4017  167.3718 C.2     1  UNL1        0.1567
      2 N         140.2842  140.5351  166.9970 N.2     1  UNL1       -0.2468
      3 C         139.5575  141.1996  165.8654 C.3     1  UNL1        0.1720
      4 C         138.3360  140.8065  165.0886 C.3     1  UNL1        0.1653
      5 O         137.6196  139.5293  165.4131 O.3     1  UNL1       -0.3798
      6 C         137.8309  141.6908  163.9872 C.3     1  UNL1        0.1688
      7 O         136.6094  141.2978  163.2104 O.3     1  UNL1       -0.3794
      8 C         138.5473  142.9681  163.6627 C.3     1  UNL1        0.1746
      9 O         139.7689  143.3611  164.4396 O.3     1  UNL1       -0.3402
     10 C         140.2739  142.4768  165.5409 C.3     1  UNL1        0.1938
     11 S         141.4434  142.6018  166.4719 S.3     1  UNL1       -0.0495
     12 H         136.8574  139.4269  164.8220 H       1  UNL1        0.2105
     13 H         136.2717  140.4522  163.5449 H       1  UNL1        0.2105
     14 C         138.0422  143.8524  162.5614 C.3     1  UNL1        0.1693
     15 O         137.5850  143.2500  161.2660 O.3     1  UNL1       -0.3794
     16 H         138.3407  142.8434  160.8139 H       1  UNL1        0.2105
     17 N         142.4466  141.1181  168.4562 N.pl3   1  UNL1       -0.2869
     18 C         143.2790  142.2314  169.0196 C.3     1  UNL1        0.1140
     19 C         141.8062  139.2608  170.1563 C.3     1  UNL1        0.0232
     20 C         142.6110  139.7211  168.9771 C.3     1  UNL1        0.0927
@<TRIPOS>BOND
     1    19    20    1
     2    20    17    1
     3    17    18    1
     4    17     1    1
     5     1     2    2
     6     3     2    1
     7     3     4    1
     8     4     5    1
     9     4     6    1
    10     6     7    1
    11     6     8    1
    12     8    14    1
    13    14    15    1
    14     8     9    1
    15    10     9    1
    16    10    11    1
    17    11     1    1
    18    10     3    1
    19     5    12    1
    20     7    13    1
    21    15    16    1
@<TRIPOS>MOLECULE
*****
 20 21 0 0 0
SMALL
GASTEIGER

@<TRIPOS>ATOM
      1 C         140.2988  141.3201  167.0537 C.2     1  UNL1        0.1567
      2 N         139.1528  141.0548  166.1229 N.2     1  UNL1       -0.2468
      3 C         139.1789  142.0987  165.0461 C.3     1  UNL1        0.1720
      4 C         138.2947  142.3378  163.8583 C.3     1  UNL1        0.1653
      5 O         137.1325  141.4273  163.5931 O.3     1  UNL1       -0.3798
      6 C         138.5725  143.4874  162.9356 C.3     1  UNL1        0.1688
      7 O         137.6883  143.7265  161.7479 O.3     1  UNL1       -0.3794
      8 C         139.7347  144.3979  163.2009 C.3     1  UNL1        0.1746
      9 O         140.6190  144.1588  164.3887 O.3     1  UNL1       -0.3402
     10 C         140.3411  143.0092  165.3113 C.3     1  UNL1        0.1938
     11 S         141.0332  142.5280  166.5520 S.3     1  UNL1       -0.0495
     12 H         136.6685  141.7198  162.7930 H       1  UNL1        0.2105
     13 H         136.9908  143.0529  161.7232 H       1  UNL1        0.2105
     14 C         140.0126  145.5475  162.2783 C.3     1  UNL1        0.1693
     15 O         138.8755  146.2881  161.6392 O.3     1  UNL1       -0.3794
     16 H         138.4086  145.6980  161.0271 H       1  UNL1        0.2105
     17 N         140.6489  140.5184  168.2721 N.pl3   1  UNL1       -0.2869
     18 C         139.6248  140.3001  169.3461 C.3     1  UNL1        0.1140
     19 C         142.3733  139.1331  169.6350 C.3     1  UNL1        0.0232
     20 C         142.0231  139.9348  168.4166 C.3     1  UNL1        0.0927
@<TRIPOS>BOND
     1    19    20    1
     2    20    17    1
     3    17    18    1
     4    17     1    1
     5     1     2    2
     6     3     2    1
     7     3     4    1
     8     4     5    1
     9     4     6    1
    10     6     7    1
    11     6     8    1
    12     8    14    1
    13    14    15    1
    14     8     9    1
    15    10     9    1
    16    10    11    1
    17    11     1    1
    18    10     3    1
    19     5    12    1
    20     7    13    1
    21    15    16    1
@<TRIPOS>MOLECULE
*****
 20 21 0 0 0
SMALL
GASTEIGER

@<TRIPOS>ATOM
      1 C         139.0101  139.6114  164.6459 C.2     1  UNL1        0.1567
      2 N         140.3653  140.1671  164.9693 N.2     1  UNL1       -0.2468
      3 C         140.5150  140.1849  166.4617 C.3     1  UNL1        0.1720
      4 C         141.6380  140.6267  167.3526 C.3     1  UNL1        0.1653
      5 O         142.9007  141.1714  166.7536 O.3     1  UNL1       -0.3798
      6 C         141.4983  140.5238  168.8426 C.3     1  UNL1        0.1688
      7 O         142.6213  140.9656  169.7334 O.3     1  UNL1       -0.3794
      8 C         140.2356  139.9791  169.4416 C.3     1  UNL1        0.1746
      9 O         139.1126  139.5373  168.5506 O.3     1  UNL1       -0.3402
     10 C         139.2523  139.6402  167.0607 C.3     1  UNL1        0.1938
     11 S         138.3222  139.2858  165.9385 S.3     1  UNL1       -0.0495
     12 H         143.5190  141.4081  167.4625 H       1  UNL1        0.2105
     13 H         143.3570  141.2888  169.1902 H       1  UNL1        0.2105
     14 C         140.0958  139.8762  170.9315 C.3     1  UNL1        0.1693
     15 O         140.7803  140.8725  171.8196 O.3     1  UNL1       -0.3794
     16 H         141.7416  140.7705  171.7393 H       1  UNL1        0.2105
     17 N         138.4424  139.4158  163.2714 N.pl3   1  UNL1       -0.2869
     18 C         138.4523  138.0540  162.6427 C.3     1  UNL1        0.1140
     19 C         137.3640  141.7794  163.2772 C.3     1  UNL1        0.0232
     20 C         137.8648  140.5819  162.5255 C.3     1  UNL1        0.0927
@<TRIPOS>BOND
     1    19    20    1
     2    20    17    1
     3    17    18    1
     4    17     1    1
     5     1     2    2
     6     3     2    1
     7     3     4    1
     8     4     5    1
     9     4     6    1
    10     6     7    1
    11     6     8    1
    12     8    14    1
    13    14    15    1
    14     8     9    1
    15    10     9    1
    16    10    11    1
    17    11     1    1
    18    10     3    1
    19     5    12    1
    20     7    13    1
    21    15    16    1
@<TRIPOS>MOLECULE
*****
 20 21 0 0 0
SMALL
GASTEIGER

@<TRIPOS>ATOM
      1 C         142.0195  140.0342  165.0063 C.2     1  UNL1        0.1567
      2 N         140.7094  139.5865  165.5833 N.2     1  UNL1       -0.2468
      3 C         140.6867  139.9688  167.0336 C.3     1  UNL1        0.1720
      4 C         139.6533  139.7825  168.1047 C.3     1  UNL1        0.1653
      5 O         138.3571  139.0985  167.7854 O.3     1  UNL1       -0.3798
      6 C         139.9160  140.2801  169.4952 C.3     1  UNL1        0.1688
      7 O         138.8826  140.0938  170.5663 O.3     1  UNL1       -0.3794
      8 C         141.2123  140.9641  169.8145 C.3     1  UNL1        0.1746
      9 O         142.2457  141.1504  168.7433 O.3     1  UNL1       -0.3402
     10 C         141.9829  140.6528  167.3530 C.3     1  UNL1        0.1938
     11 S         142.8066  140.6932  166.1000 S.3     1  UNL1       -0.0495
     12 H         137.8064  139.0606  168.5830 H       1  UNL1        0.2105
     13 H         138.1111  139.6377  170.1953 H       1  UNL1        0.2105
     14 C         141.4750  141.4618  171.2049 C.3     1  UNL1        0.1693
     15 O         140.4057  142.2038  171.9506 O.3     1  UNL1       -0.3794
     16 H         140.2285  143.0479  171.5068 H       1  UNL1        0.2105
     17 N         142.4645  139.8545  163.5851 N.pl3   1  UNL1       -0.2869
     18 C         141.8937  140.7245  162.5048 C.3     1  UNL1        0.1140
     19 C         143.8135  138.5214  161.8095 C.3     1  UNL1        0.0232
     20 C         143.4802  138.8047  163.2443 C.3     1  UNL1        0.0927
@<TRIPOS>BOND
     1    19    20    1
     2    20    17    1
     3    17    18    1
     4    17     1    1
     5     1     2    2
     6     3     2    1
     7     3     4    1
     8     4     5    1
     9     4     6    1
    10     6     7    1
    11     6     8    1
    12     8    14    1
    13    14    15    1
    14     8     9    1
    15    10     9    1
    16    10    11    1
    17    11     1    1
    18    10     3    1
    19     5    12    1
    20     7    13    1
    21    15    16    1
@<TRIPOS>MOLECULE
*****
 20 21 0 0 0
SMALL
GASTEIGER

@<TRIPOS>ATOM
      1 C         140.6151  141.5063  164.8930 C.2     1  UNL1        0.1567
      2 N         139.6978  140.5904  165.6478 N.2     1  UNL1       -0.2468
      3 C         140.0023  140.7311  167.1098 C.3     1  UNL1        0.1720
      4 C         139.4158  140.0756  168.3249 C.3     1  UNL1        0.1653
      5 O         138.3104  139.0727  168.1761 O.3     1  UNL1       -0.3798
      6 C         139.9348  140.4230  169.6887 C.3     1  UNL1        0.1688
      7 O         139.3483  139.7676  170.9037 O.3     1  UNL1       -0.3794
      8 C         141.0403  141.4259  169.8375 C.3     1  UNL1        0.1746
      9 O         141.6268  142.0814  168.6224 O.3     1  UNL1       -0.3402
     10 C         141.1078  141.7340  167.2586 C.3     1  UNL1        0.1938
     11 S         141.4865  142.2131  165.8885 S.3     1  UNL1       -0.0495
     12 H         138.0483  138.7481  169.0518 H       1  UNL1        0.2105
     13 H         138.6501  139.1510  170.6332 H       1  UNL1        0.2105
     14 C         141.5593  141.7734  171.2012 C.3     1  UNL1        0.1693
     15 O         142.1215  140.7002  172.0856 O.3     1  UNL1       -0.3794
     16 H         141.4158  140.0824  172.3330 H       1  UNL1        0.2105
     17 N         140.6540  141.6841  163.4041 N.pl3   1  UNL1       -0.2869
     18 C         140.6142  143.0617  162.8120 C.3     1  UNL1        0.1140
     19 C         139.4756  139.8540  161.9857 C.3     1  UNL1        0.0232
     20 C         140.7328  140.4844  162.5072 C.3     1  UNL1        0.0927
@<TRIPOS>BOND
     1    19    20    1
     2    20    17    1
     3    17    18    1
     4    17     1    1
     5     1     2    2
     6     3     2    1
     7     3     4    1
     8     4     5    1
     9     4     6    1
    10     6     7    1
    11     6     8    1
    12     8    14    1
    13    14    15    1
    14     8     9    1
    15    10     9    1
    16    10    11    1
    17    11     1    1
    18    10     3    1
    19     5    12    1
    20     7    13    1
    21    15    16    1
