@<TRIPOS>MOLECULE
*****
 33 36 0 0 0
SMALL
GASTEIGER

@<TRIPOS>ATOM
      1 N         141.0772  138.9348  163.6244 N.am    1  UNL1       -0.2555
      2 C         141.9001  139.7380  164.5875 C.3     1  UNL1        0.1197
      3 C         141.3864  140.0060  165.9711 C.3     1  UNL1        0.1160
      4 N         140.0497  139.4706  166.3916 N.am    1  UNL1       -0.2660
      5 C         139.5360  139.7385  167.7751 C.2     1  UNL1        0.2496
      6 O         138.1994  139.2032  168.1956 O.2     1  UNL1       -0.2699
      7 C         139.2268  138.6673  165.4284 C.3     1  UNL1        0.1799
      8 C         139.7405  138.3994  164.0449 C.2     1  UNL1        0.2497
      9 O         138.9176  137.5961  163.0817 O.2     1  UNL1       -0.2727
     10 C         140.3589  140.5418  168.7382 C.ar    1  UNL1        0.0581
     11 C         141.3910  139.8639  169.5898 C.ar    1  UNL1        0.0343
     12 C         142.2140  140.6673  170.5529 C.ar    1  UNL1        0.1425
     13 F         143.2461  139.9894  171.4045 F       1  UNL1       -0.2041
     14 C         142.0047  142.1484  170.6644 C.ar    1  UNL1        0.0592
     15 C         140.9726  142.8263  169.8128 C.ar    1  UNL1        0.1425
     16 F         140.7634  144.3074  169.9243 F       1  UNL1       -0.2041
     17 C         140.1497  142.0230  168.8497 C.ar    1  UNL1        0.0343
     18 C         142.6183  138.1309  159.4737 C.ar    1  UNL1        0.1386
     19 C         143.4258  137.7144  160.6672 C.ar    1  UNL1        0.0382
     20 C         142.9120  137.9824  162.0507 C.ar    1  UNL1        0.0180
     21 C         141.5909  138.6668  162.2408 C.ar    1  UNL1        0.0541
     22 C         140.7834  139.0833  161.0472 C.ar    1  UNL1        0.0180
     23 C         141.2972  138.8153  159.6637 C.ar    1  UNL1        0.0382
     24 O         143.1320  137.8629  158.0900 O.3     1  UNL1       -0.4754
     25 C         142.3969  136.9173  157.1871 C.3     1  UNL1        0.2068
     26 C         143.1582  135.9152  156.3708 C.3     1  UNL1        0.0646
     27 C         142.6935  134.4904  156.3083 C.3     1  UNL1        0.0759
     28 C         143.3195  131.9317  154.3820 C.3     1  UNL1        0.0173
     29 C         143.9390  132.1993  155.7217 C.3     1  UNL1        0.0576
     30 C         144.9550  131.3376  156.4111 C.3     1  UNL1        0.0174
     31 C         145.2952  131.9812  157.7226 C.3     1  UNL1        0.0187
     32 C         144.4894  133.2406  157.8437 C.3     1  UNL1        0.0721
     33 N         143.6512  133.3754  156.6071 N.3     1  UNL1       -0.2738
@<TRIPOS>BOND
     1    29    28    1
     2    29    30    1
     3    30    31    1
     4    31    32    1
     5    32    33    1
     6    33    27    1
     7    27    26    1
     8    26    25    1
     9    25    24    1
    10    24    18    1
    11    18    19   ar
    12    19    20   ar
    13    20    21   ar
    14    21     1    1
    15     1     2    1
    16     2     3    1
    17     3     4    1
    18     4     5   am
    19     5     6    2
    20     5    10    1
    21    10    11   ar
    22    11    12   ar
    23    12    13    1
    24    12    14   ar
    25    14    15   ar
    26    15    16    1
    27    15    17   ar
    28     4     7    1
    29     7     8    1
    30     8     9    2
    31    21    22   ar
    32    22    23   ar
    33    33    29    1
    34    23    18   ar
    35     8     1   am
    36    17    10   ar
@<TRIPOS>MOLECULE
*****
 33 36 0 0 0
SMALL
GASTEIGER

@<TRIPOS>ATOM
      1 N         141.2563  139.2386  163.4143 N.am    1  UNL1       -0.2555
      2 C         142.0443  140.0107  164.4306 C.3     1  UNL1        0.1197
      3 C         141.5113  140.1799  165.8225 C.3     1  UNL1        0.1160
      4 N         140.1902  139.5769  166.1980 N.am    1  UNL1       -0.2660
      5 C         139.6571  139.7461  167.5898 C.2     1  UNL1        0.2496
      6 O         138.3359  139.1431  167.9654 O.2     1  UNL1       -0.2699
      7 C         139.4021  138.8047  165.1817 C.3     1  UNL1        0.1799
      8 C         139.9352  138.6356  163.7899 C.2     1  UNL1        0.2497
      9 O         139.1472  137.8634  162.7736 O.2     1  UNL1       -0.2727
     10 C         140.4451  140.5182  168.6061 C.ar    1  UNL1        0.0581
     11 C         140.2067  141.9888  168.7806 C.ar    1  UNL1        0.0343
     12 C         140.9948  142.7609  169.7969 C.ar    1  UNL1        0.1425
     13 F         140.7564  144.2316  169.9714 F       1  UNL1       -0.2041
     14 C         142.0212  142.0625  170.6386 C.ar    1  UNL1        0.0592
     15 C         142.2596  140.5919  170.4641 C.ar    1  UNL1        0.1425
     16 F         143.2861  139.8934  171.3057 F       1  UNL1       -0.2041
     17 C         141.4716  139.8197  169.4478 C.ar    1  UNL1        0.0343
     18 C         142.8554  138.7311  159.2388 C.ar    1  UNL1        0.1386
     19 C         141.8385  139.7951  159.5283 C.ar    1  UNL1        0.0382
     20 C         141.3055  139.9642  160.9201 C.ar    1  UNL1        0.0180
     21 C         141.7894  139.0694  162.0225 C.ar    1  UNL1        0.0541
     22 C         142.8063  138.0054  161.7330 C.ar    1  UNL1        0.0180
     23 C         143.3393  137.8363  160.3411 C.ar    1  UNL1        0.0382
     24 O         143.3885  138.5619  157.8469 O.3     1  UNL1       -0.4754
     25 C         142.6672  137.6822  156.8693 C.3     1  UNL1        0.2068
     26 C         142.5333  136.2128  157.1395 C.3     1  UNL1        0.0646
     27 C         143.4344  135.2369  156.4426 C.3     1  UNL1        0.0759
     28 C         144.8643  132.6873  157.8931 C.3     1  UNL1        0.0173
     29 C         143.6802  132.6289  156.9742 C.3     1  UNL1        0.0576
     30 C         142.9455  131.3883  156.5606 C.3     1  UNL1        0.0174
     31 C         141.8341  131.7935  155.6383 C.3     1  UNL1        0.0187
     32 C         141.8820  133.2845  155.4818 C.3     1  UNL1        0.0721
     33 N         143.0229  133.8008  156.3074 N.3     1  UNL1       -0.2738
@<TRIPOS>BOND
     1    29    28    1
     2    29    30    1
     3    30    31    1
     4    31    32    1
     5    32    33    1
     6    33    27    1
     7    27    26    1
     8    26    25    1
     9    25    24    1
    10    24    18    1
    11    18    19   ar
    12    19    20   ar
    13    20    21   ar
    14    21     1    1
    15     1     2    1
    16     2     3    1
    17     3     4    1
    18     4     5   am
    19     5     6    2
    20     5    10    1
    21    10    11   ar
    22    11    12   ar
    23    12    13    1
    24    12    14   ar
    25    14    15   ar
    26    15    16    1
    27    15    17   ar
    28     4     7    1
    29     7     8    1
    30     8     9    2
    31    21    22   ar
    32    22    23   ar
    33    33    29    1
    34    23    18   ar
    35     8     1   am
    36    17    10   ar
@<TRIPOS>MOLECULE
*****
 33 36 0 0 0
SMALL
GASTEIGER

@<TRIPOS>ATOM
      1 N         139.0956  139.6670  162.7080 N.am    1  UNL1       -0.2555
      2 C         140.1856  138.9419  161.9759 C.3     1  UNL1        0.1197
      3 C         140.1921  138.9143  160.4761 C.3     1  UNL1        0.1160
      4 N         139.1084  139.6118  159.7085 N.am    1  UNL1       -0.2660
      5 C         139.1148  139.5842  158.2088 C.2     1  UNL1        0.2496
      6 O         138.0311  140.2817  157.4413 O.2     1  UNL1       -0.2699
      7 C         138.0183  140.3369  160.4407 C.3     1  UNL1        0.1799
      8 C         138.0120  140.3645  161.9404 C.2     1  UNL1        0.2497
      9 O         136.9219  141.0896  162.6726 O.2     1  UNL1       -0.2727
     10 C         140.2048  138.8592  157.4767 C.ar    1  UNL1        0.0581
     11 C         141.5539  139.4955  157.3185 C.ar    1  UNL1        0.0343
     12 C         142.6440  138.7703  156.5863 C.ar    1  UNL1        0.1425
     13 F         143.9930  139.4067  156.4280 F       1  UNL1       -0.2041
     14 C         142.3849  137.4089  156.0124 C.ar    1  UNL1        0.0592
     15 C         141.0358  136.7726  156.1707 C.ar    1  UNL1        0.1425
     16 F         140.7768  135.4112  155.5968 F       1  UNL1       -0.2041
     17 C         139.9458  137.4977  156.9028 C.ar    1  UNL1        0.0343
     18 C         139.0764  139.7499  167.2072 C.ar    1  UNL1        0.1386
     19 C         139.5060  140.9629  166.4366 C.ar    1  UNL1        0.0382
     20 C         139.5124  140.9353  164.9369 C.ar    1  UNL1        0.0180
     21 C         139.0892  139.6946  164.2078 C.ar    1  UNL1        0.0541
     22 C         138.6596  138.4816  164.9784 C.ar    1  UNL1        0.0180
     23 C         138.6532  138.5092  166.4781 C.ar    1  UNL1        0.0382
     24 O         139.0700  139.7775  168.7070 O.3     1  UNL1       -0.4754
     25 C         140.2990  140.2024  169.4546 C.3     1  UNL1        0.2068
     26 C         141.6271  139.5877  169.1255 C.3     1  UNL1        0.0646
     27 C         142.6308  140.3575  168.3193 C.3     1  UNL1        0.0759
     28 C         143.5370  142.5240  166.0533 C.3     1  UNL1        0.0173
     29 C         143.1956  141.0838  165.8096 C.3     1  UNL1        0.0576
     30 C         143.2107  140.3867  164.4816 C.3     1  UNL1        0.0174
     31 C         142.8035  138.9599  164.7023 C.3     1  UNL1        0.0187
     32 C         142.5367  138.7754  166.1668 C.3     1  UNL1        0.0721
     33 N         142.7790  140.0880  166.8512 N.3     1  UNL1       -0.2738
@<TRIPOS>BOND
     1    29    28    1
     2    29    30    1
     3    30    31    1
     4    31    32    1
     5    32    33    1
     6    33    27    1
     7    27    26    1
     8    26    25    1
     9    25    24    1
    10    24    18    1
    11    18    19   ar
    12    19    20   ar
    13    20    21   ar
    14    21     1    1
    15     1     2    1
    16     2     3    1
    17     3     4    1
    18     4     5   am
    19     5     6    2
    20     5    10    1
    21    10    11   ar
    22    11    12   ar
    23    12    13    1
    24    12    14   ar
    25    14    15   ar
    26    15    16    1
    27    15    17   ar
    28     4     7    1
    29     7     8    1
    30     8     9    2
    31    21    22   ar
    32    22    23   ar
    33    33    29    1
    34    23    18   ar
    35     8     1   am
    36    17    10   ar
@<TRIPOS>MOLECULE
*****
 33 36 0 0 0
SMALL
GASTEIGER

@<TRIPOS>ATOM
      1 N         139.5712  141.1801  163.2714 N.am    1  UNL1       -0.2555
      2 C         140.4460  142.0603  164.1141 C.3     1  UNL1        0.1197
      3 C         140.5052  141.8578  165.5992 C.3     1  UNL1        0.1160
      4 N         139.6897  140.7751  166.2416 N.am    1  UNL1       -0.2660
      5 C         139.7489  140.5725  167.7267 C.2     1  UNL1        0.2496
      6 O         138.9333  139.4899  168.3690 O.2     1  UNL1       -0.2699
      7 C         138.8149  139.8949  165.3989 C.3     1  UNL1        0.1799
      8 C         138.7557  140.0975  163.9138 C.2     1  UNL1        0.2497
      9 O         137.8809  139.2173  163.0711 O.2     1  UNL1       -0.2727
     10 C         140.6236  141.4527  168.5693 C.ar    1  UNL1        0.0581
     11 C         140.1293  142.7977  169.0127 C.ar    1  UNL1        0.0343
     12 C         141.0041  143.6778  169.8554 C.ar    1  UNL1        0.1425
     13 F         140.5098  145.0228  170.2988 F       1  UNL1       -0.2041
     14 C         142.3732  143.2130  170.2547 C.ar    1  UNL1        0.0592
     15 C         142.8675  141.8680  169.8113 C.ar    1  UNL1        0.1425
     16 F         144.2366  141.4031  170.2105 F       1  UNL1       -0.2041
     17 C         141.9928  140.9878  168.9686 C.ar    1  UNL1        0.0343
     18 C         139.3935  141.7877  158.8162 C.ar    1  UNL1        0.1386
     19 C         138.4519  142.5352  159.7132 C.ar    1  UNL1        0.0382
     20 C         138.5112  142.3327  161.1982 C.ar    1  UNL1        0.0180
     21 C         139.5120  141.3826  161.7863 C.ar    1  UNL1        0.0541
     22 C         140.4536  140.6351  160.8893 C.ar    1  UNL1        0.0180
     23 C         140.3943  140.8377  159.4042 C.ar    1  UNL1        0.0382
     24 O         139.3343  141.9902  157.3310 O.3     1  UNL1       -0.4754
     25 C         139.3003  143.3786  156.7642 C.3     1  UNL1        0.2068
     26 C         140.5292  144.2377  156.8100 C.3     1  UNL1        0.0646
     27 C         140.8151  145.0736  158.0222 C.3     1  UNL1        0.0759
     28 C         140.2589  145.6402  161.1874 C.3     1  UNL1        0.0173
     29 C         141.3285  144.7514  160.6255 C.3     1  UNL1        0.0576
     30 C         142.3304  143.9670  161.4198 C.3     1  UNL1        0.0174
     31 C         143.2052  143.2217  160.4559 C.3     1  UNL1        0.0187
     32 C         142.7441  143.5455  159.0657 C.3     1  UNL1        0.0721
     33 N         141.5842  144.4910  159.1706 N.3     1  UNL1       -0.2738
@<TRIPOS>BOND
     1    29    28    1
     2    29    30    1
     3    30    31    1
     4    31    32    1
     5    32    33    1
     6    33    27    1
     7    27    26    1
     8    26    25    1
     9    25    24    1
    10    24    18    1
    11    18    19   ar
    12    19    20   ar
    13    20    21   ar
    14    21     1    1
    15     1     2    1
    16     2     3    1
    17     3     4    1
    18     4     5   am
    19     5     6    2
    20     5    10    1
    21    10    11   ar
    22    11    12   ar
    23    12    13    1
    24    12    14   ar
    25    14    15   ar
    26    15    16    1
    27    15    17   ar
    28     4     7    1
    29     7     8    1
    30     8     9    2
    31    21    22   ar
    32    22    23   ar
    33    33    29    1
    34    23    18   ar
    35     8     1   am
    36    17    10   ar
@<TRIPOS>MOLECULE
*****
 33 36 0 0 0
SMALL
GASTEIGER

@<TRIPOS>ATOM
      1 N         141.3109  139.4874  163.5201 N.am    1  UNL1       -0.2555
      2 C         142.0468  140.2761  164.5623 C.3     1  UNL1        0.1197
      3 C         141.4879  140.3908  165.9496 C.3     1  UNL1        0.1160
      4 N         140.1931  139.7166  166.2946 N.am    1  UNL1       -0.2660
      5 C         139.6342  139.8313  167.6819 C.2     1  UNL1        0.2496
      6 O         138.3394  139.1571  168.0269 O.2     1  UNL1       -0.2699
      7 C         139.4572  138.9279  165.2523 C.3     1  UNL1        0.1799
      8 C         140.0161  138.8132  163.8651 C.2     1  UNL1        0.2497
      9 O         139.2802  138.0245  162.8228 O.2     1  UNL1       -0.2727
     10 C         140.3701  140.6200  168.7241 C.ar    1  UNL1        0.0581
     11 C         141.3413  139.9329  169.6377 C.ar    1  UNL1        0.0343
     12 C         142.0772  140.7218  170.6800 C.ar    1  UNL1        0.1425
     13 F         143.0484  140.0347  171.5936 F       1  UNL1       -0.2041
     14 C         141.8419  142.1976  170.8086 C.ar    1  UNL1        0.0592
     15 C         140.8707  142.8846  169.8950 C.ar    1  UNL1        0.1425
     16 F         140.6354  144.3604  170.0236 F       1  UNL1       -0.2041
     17 C         140.1348  142.0959  168.8527 C.ar    1  UNL1        0.0343
     18 C         142.9875  139.1435  159.3583 C.ar    1  UNL1        0.1386
     19 C         141.6860  139.8534  159.5862 C.ar    1  UNL1        0.0382
     20 C         141.1271  139.9681  160.9735 C.ar    1  UNL1        0.0180
     21 C         141.8698  139.3727  162.1328 C.ar    1  UNL1        0.0541
     22 C         143.1713  138.6627  161.9049 C.ar    1  UNL1        0.0180
     23 C         143.7301  138.5481  160.5176 C.ar    1  UNL1        0.0382
     24 O         143.5464  139.0288  157.9710 O.3     1  UNL1       -0.4754
     25 C         143.8017  140.2650  157.1607 C.3     1  UNL1        0.2068
     26 C         144.7592  141.3055  157.6614 C.3     1  UNL1        0.0646
     27 C         144.2405  142.6112  158.1868 C.3     1  UNL1        0.0759
     28 C         141.5328  144.0409  159.3153 C.3     1  UNL1        0.0173
     29 C         142.5997  143.3926  160.1468 C.3     1  UNL1        0.0576
     30 C         142.6093  143.2877  161.6431 C.3     1  UNL1        0.0174
     31 C         143.8598  142.5656  162.0492 C.3     1  UNL1        0.0187
     32 C         144.6231  142.2244  160.8038 C.3     1  UNL1        0.0721
     33 N         143.8443  142.7355  159.6281 N.3     1  UNL1       -0.2738
@<TRIPOS>BOND
     1    29    28    1
     2    29    30    1
     3    30    31    1
     4    31    32    1
     5    32    33    1
     6    33    27    1
     7    27    26    1
     8    26    25    1
     9    25    24    1
    10    24    18    1
    11    18    19   ar
    12    19    20   ar
    13    20    21   ar
    14    21     1    1
    15     1     2    1
    16     2     3    1
    17     3     4    1
    18     4     5   am
    19     5     6    2
    20     5    10    1
    21    10    11   ar
    22    11    12   ar
    23    12    13    1
    24    12    14   ar
    25    14    15   ar
    26    15    16    1
    27    15    17   ar
    28     4     7    1
    29     7     8    1
    30     8     9    2
    31    21    22   ar
    32    22    23   ar
    33    33    29    1
    34    23    18   ar
    35     8     1   am
    36    17    10   ar
@<TRIPOS>MOLECULE
*****
 33 36 0 0 0
SMALL
GASTEIGER

@<TRIPOS>ATOM
      1 N         142.5953  140.9939  163.1183 N.am    1  UNL1       -0.2555
      2 C         141.6963  141.7666  164.0373 C.3     1  UNL1        0.1197
      3 C         141.6227  141.4071  165.4918 C.3     1  UNL1        0.1160
      4 N         142.4482  140.2749  166.0272 N.am    1  UNL1       -0.2660
      5 C         142.3746  139.9153  167.4816 C.2     1  UNL1        0.2496
      6 O         143.2000  138.7831  168.0170 O.2     1  UNL1       -0.2699
      7 C         143.3472  139.5021  165.1081 C.3     1  UNL1        0.1799
      8 C         143.4208  139.8616  163.6537 C.2     1  UNL1        0.2497
      9 O         144.3198  139.0888  162.7346 O.2     1  UNL1       -0.2727
     10 C         141.4756  140.6881  168.4006 C.ar    1  UNL1        0.0581
     11 C         141.8557  142.0737  168.8315 C.ar    1  UNL1        0.0343
     12 C         140.9566  142.8464  169.7506 C.ar    1  UNL1        0.1425
     13 F         141.3367  144.2320  170.1815 F       1  UNL1       -0.2041
     14 C         139.6775  142.2336  170.2386 C.ar    1  UNL1        0.0592
     15 C         139.2974  140.8480  169.8077 C.ar    1  UNL1        0.1425
     16 F         138.0182  140.2352  170.2957 F       1  UNL1       -0.2041
     17 C         140.1964  140.0753  168.8887 C.ar    1  UNL1        0.0343
     18 C         142.8161  142.0722  158.7550 C.ar    1  UNL1        0.1386
     19 C         142.0149  140.8825  159.1939 C.ar    1  UNL1        0.0382
     20 C         141.9413  140.5231  160.6484 C.ar    1  UNL1        0.0180
     21 C         142.6689  141.3533  161.6639 C.ar    1  UNL1        0.0541
     22 C         143.4701  142.5431  161.2250 C.ar    1  UNL1        0.0180
     23 C         143.5436  142.9025  159.7705 C.ar    1  UNL1        0.0382
     24 O         142.8897  142.4317  157.3006 O.3     1  UNL1       -0.4754
     25 C         141.8678  143.3529  156.7030 C.3     1  UNL1        0.2068
     26 C         141.7617  144.7693  157.1854 C.3     1  UNL1        0.0646
     27 C         140.5467  145.2142  157.9441 C.3     1  UNL1        0.0759
     28 C         138.7618  142.5852  158.6868 C.3     1  UNL1        0.0173
     29 C         139.4681  143.4764  159.6650 C.3     1  UNL1        0.0576
     30 C         139.4779  143.3156  161.1563 C.3     1  UNL1        0.0174
     31 C         140.3044  144.4247  161.7367 C.3     1  UNL1        0.0187
     32 C         140.8054  145.2709  160.6040 C.3     1  UNL1        0.0721
     33 N         140.2885  144.6848  159.3236 N.3     1  UNL1       -0.2738
@<TRIPOS>BOND
     1    29    28    1
     2    29    30    1
     3    30    31    1
     4    31    32    1
     5    32    33    1
     6    33    27    1
     7    27    26    1
     8    26    25    1
     9    25    24    1
    10    24    18    1
    11    18    19   ar
    12    19    20   ar
    13    20    21   ar
    14    21     1    1
    15     1     2    1
    16     2     3    1
    17     3     4    1
    18     4     5   am
    19     5     6    2
    20     5    10    1
    21    10    11   ar
    22    11    12   ar
    23    12    13    1
    24    12    14   ar
    25    14    15   ar
    26    15    16    1
    27    15    17   ar
    28     4     7    1
    29     7     8    1
    30     8     9    2
    31    21    22   ar
    32    22    23   ar
    33    33    29    1
    34    23    18   ar
    35     8     1   am
    36    17    10   ar
@<TRIPOS>MOLECULE
*****
 33 36 0 0 0
SMALL
GASTEIGER

@<TRIPOS>ATOM
      1 N         141.3459  139.6961  162.8860 N.am    1  UNL1       -0.2555
      2 C         140.5505  140.5413  163.8361 C.3     1  UNL1        0.1197
      3 C         140.8450  140.4968  165.3063 C.3     1  UNL1        0.1160
      4 N         141.9350  139.6071  165.8262 N.am    1  UNL1       -0.2660
      5 C         142.2295  139.5626  167.2963 C.2     1  UNL1        0.2496
      6 O         143.3195  138.6729  167.8163 O.2     1  UNL1       -0.2699
      7 C         142.7305  138.7619  164.8760 C.3     1  UNL1        0.1799
      8 C         142.4360  138.8064  163.4059 C.2     1  UNL1        0.2497
      9 O         143.2315  137.9612  162.4556 O.2     1  UNL1       -0.2727
     10 C         141.4340  140.4077  168.2465 C.ar    1  UNL1        0.0581
     11 C         141.9558  141.7468  168.6763 C.ar    1  UNL1        0.0343
     12 C         141.1603  142.5920  169.6265 C.ar    1  UNL1        0.1425
     13 F         141.6820  143.9310  170.0562 F       1  UNL1       -0.2041
     14 C         139.8430  142.0981  170.1469 C.ar    1  UNL1        0.0592
     15 C         139.3212  140.7590  169.7171 C.ar    1  UNL1        0.1425
     16 F         138.0040  140.2652  170.2375 F       1  UNL1       -0.2041
     17 C         140.1167  139.9139  168.7669 C.ar    1  UNL1        0.0343
     18 C         140.4624  139.8295  158.4756 C.ar    1  UNL1        0.1386
     19 C         139.6826  138.9112  159.3692 C.ar    1  UNL1        0.0382
     20 C         139.9772  138.8667  160.8393 C.ar    1  UNL1        0.0180
     21 C         141.0514  139.7406  161.4158 C.ar    1  UNL1        0.0541
     22 C         141.8312  140.6589  160.5221 C.ar    1  UNL1        0.0180
     23 C         141.5367  140.7034  159.0520 C.ar    1  UNL1        0.0382
     24 O         140.1679  139.8740  157.0054 O.3     1  UNL1       -0.4754
     25 C         138.9605  140.6096  156.5043 C.3     1  UNL1        0.2068
     26 C         138.7895  142.0678  156.8118 C.3     1  UNL1        0.0646
     27 C         138.1399  142.4925  158.0954 C.3     1  UNL1        0.0759
     28 C         137.9799  141.8838  161.2974 C.3     1  UNL1        0.0173
     29 C         138.8805  142.8831  160.6338 C.3     1  UNL1        0.0576
     30 C         139.8657  143.7780  161.3255 C.3     1  UNL1        0.0174
     31 C         140.5482  144.6109  160.2812 C.3     1  UNL1        0.0187
     32 C         139.9847  144.2307  158.9441 C.3     1  UNL1        0.0721
     33 N         138.9540  143.1628  159.1620 N.3     1  UNL1       -0.2738
@<TRIPOS>BOND
     1    29    28    1
     2    29    30    1
     3    30    31    1
     4    31    32    1
     5    32    33    1
     6    33    27    1
     7    27    26    1
     8    26    25    1
     9    25    24    1
    10    24    18    1
    11    18    19   ar
    12    19    20   ar
    13    20    21   ar
    14    21     1    1
    15     1     2    1
    16     2     3    1
    17     3     4    1
    18     4     5   am
    19     5     6    2
    20     5    10    1
    21    10    11   ar
    22    11    12   ar
    23    12    13    1
    24    12    14   ar
    25    14    15   ar
    26    15    16    1
    27    15    17   ar
    28     4     7    1
    29     7     8    1
    30     8     9    2
    31    21    22   ar
    32    22    23   ar
    33    33    29    1
    34    23    18   ar
    35     8     1   am
    36    17    10   ar
@<TRIPOS>MOLECULE
*****
 33 36 0 0 0
SMALL
GASTEIGER

@<TRIPOS>ATOM
      1 N         142.4348  140.6461  163.0854 N.am    1  UNL1       -0.2555
      2 C         141.5468  141.4469  163.9909 C.3     1  UNL1        0.1197
      3 C         141.5264  141.1636  165.4639 C.3     1  UNL1        0.1160
      4 N         142.3940  140.0794  166.0311 N.am    1  UNL1       -0.2660
      5 C         142.3736  139.7960  167.5039 C.2     1  UNL1        0.2496
      6 O         143.2412  138.7118  168.0712 O.2     1  UNL1       -0.2699
      7 C         143.2819  139.2785  165.1254 C.3     1  UNL1        0.1799
      8 C         143.3023  139.5618  163.6526 C.2     1  UNL1        0.2497
      9 O         144.1903  138.7609  162.7469 O.2     1  UNL1       -0.2727
     10 C         141.4857  140.5969  168.4095 C.ar    1  UNL1        0.0581
     11 C         140.1864  140.0200  168.8881 C.ar    1  UNL1        0.0343
     12 C         139.2985  140.8209  169.7938 C.ar    1  UNL1        0.1425
     13 F         137.9993  140.2440  170.2724 F       1  UNL1       -0.2041
     14 C         139.7098  142.1988  170.2207 C.ar    1  UNL1        0.0592
     15 C         141.0091  142.7757  169.7421 C.ar    1  UNL1        0.1425
     16 F         141.4204  144.1536  170.1690 F       1  UNL1       -0.2041
     17 C         141.8970  141.9748  168.8365 C.ar    1  UNL1        0.0343
     18 C         142.4959  141.4960  158.6668 C.ar    1  UNL1        0.1386
     19 C         141.6204  140.4052  159.2087 C.ar    1  UNL1        0.0382
     20 C         141.6000  140.1219  160.6815 C.ar    1  UNL1        0.0180
     21 C         142.4552  140.9294  161.6125 C.ar    1  UNL1        0.0541
     22 C         143.3306  142.0202  161.0706 C.ar    1  UNL1        0.0180
     23 C         143.3510  142.3035  159.5978 C.ar    1  UNL1        0.0382
     24 O         142.5163  141.7793  157.1939 O.3     1  UNL1       -0.4754
     25 C         141.2678  142.2392  156.5012 C.3     1  UNL1        0.2068
     26 C         140.7722  143.6408  156.7010 C.3     1  UNL1        0.0646
     27 C         139.6851  143.9171  157.6968 C.3     1  UNL1        0.0759
     28 C         138.5148  142.1840  160.2020 C.3     1  UNL1        0.0173
     29 C         139.4886  143.3211  160.2950 C.3     1  UNL1        0.0576
     30 C         140.0956  143.8611  161.5560 C.3     1  UNL1        0.0174
     31 C         141.0086  144.9916  161.1838 C.3     1  UNL1        0.0187
     32 C         140.9660  145.1501  159.6928 C.3     1  UNL1        0.0721
     33 N         140.0266  144.1177  159.1435 N.3     1  UNL1       -0.2738
@<TRIPOS>BOND
     1    29    28    1
     2    29    30    1
     3    30    31    1
     4    31    32    1
     5    32    33    1
     6    33    27    1
     7    27    26    1
     8    26    25    1
     9    25    24    1
    10    24    18    1
    11    18    19   ar
    12    19    20   ar
    13    20    21   ar
    14    21     1    1
    15     1     2    1
    16     2     3    1
    17     3     4    1
    18     4     5   am
    19     5     6    2
    20     5    10    1
    21    10    11   ar
    22    11    12   ar
    23    12    13    1
    24    12    14   ar
    25    14    15   ar
    26    15    16    1
    27    15    17   ar
    28     4     7    1
    29     7     8    1
    30     8     9    2
    31    21    22   ar
    32    22    23   ar
    33    33    29    1
    34    23    18   ar
    35     8     1   am
    36    17    10   ar
@<TRIPOS>MOLECULE
*****
 33 36 0 0 0
SMALL
GASTEIGER

@<TRIPOS>ATOM
      1 N         141.0702  139.6783  158.4815 N.am    1  UNL1       -0.2555
      2 C         140.5246  138.3465  158.0588 C.3     1  UNL1        0.1197
      3 C         141.3566  137.4297  157.2118 C.3     1  UNL1        0.1160
      4 N         142.7342  137.8447  156.7875 N.am    1  UNL1       -0.2660
      5 C         143.5662  136.9280  155.9405 C.2     1  UNL1        0.2496
      6 O         144.9437  137.3431  155.5162 O.2     1  UNL1       -0.2699
      7 C         143.2798  139.1766  157.2102 C.3     1  UNL1        0.1799
      8 C         142.4478  140.0933  158.0572 C.2     1  UNL1        0.2497
      9 O         142.9934  141.4251  158.4799 O.2     1  UNL1       -0.2727
     10 C         143.0206  135.5963  155.5179 C.ar    1  UNL1        0.0581
     11 C         143.0776  134.4295  156.4588 C.ar    1  UNL1        0.0343
     12 C         142.5319  133.0977  156.0361 C.ar    1  UNL1        0.1425
     13 F         142.5889  131.9310  156.9771 F       1  UNL1       -0.2041
     14 C         141.9293  132.9327  154.6724 C.ar    1  UNL1        0.0592
     15 C         141.8723  134.0995  153.7315 C.ar    1  UNL1        0.1425
     16 F         141.2697  133.9345  152.3678 F       1  UNL1       -0.2041
     17 C         142.4179  135.4312  154.1541 C.ar    1  UNL1        0.0343
     18 C         138.5743  142.4286  161.0224 C.ar    1  UNL1        0.1386
     19 C         138.6013  142.6022  159.5327 C.ar    1  UNL1        0.0382
     20 C         139.4333  141.6854  158.6858 C.ar    1  UNL1        0.0180
     21 C         140.2382  140.5950  159.3285 C.ar    1  UNL1        0.0541
     22 C         140.2112  140.4214  160.8182 C.ar    1  UNL1        0.0180
     23 C         139.3793  141.3382  161.6651 C.ar    1  UNL1        0.0382
     24 O         137.7423  143.3454  161.8694 O.3     1  UNL1       -0.4754
     25 C         137.6804  143.1442  163.3545 C.3     1  UNL1        0.2068
     26 C         137.9426  144.2960  164.2790 C.3     1  UNL1        0.0646
     27 C         139.3521  144.6704  164.6297 C.3     1  UNL1        0.0759
     28 C         139.8570  146.2339  161.8102 C.3     1  UNL1        0.0173
     29 C         140.6954  145.1197  162.3629 C.3     1  UNL1        0.0576
     30 C         141.9131  144.5285  161.7166 C.3     1  UNL1        0.0174
     31 C         142.4336  143.4444  162.6132 C.3     1  UNL1        0.0187
     32 C         141.5376  143.3656  163.8136 C.3     1  UNL1        0.0721
     33 N         140.4633  144.4010  163.6589 N.3     1  UNL1       -0.2738
@<TRIPOS>BOND
     1    29    28    1
     2    29    30    1
     3    30    31    1
     4    31    32    1
     5    32    33    1
     6    33    27    1
     7    27    26    1
     8    26    25    1
     9    25    24    1
    10    24    18    1
    11    18    19   ar
    12    19    20   ar
    13    20    21   ar
    14    21     1    1
    15     1     2    1
    16     2     3    1
    17     3     4    1
    18     4     5   am
    19     5     6    2
    20     5    10    1
    21    10    11   ar
    22    11    12   ar
    23    12    13    1
    24    12    14   ar
    25    14    15   ar
    26    15    16    1
    27    15    17   ar
    28     4     7    1
    29     7     8    1
    30     8     9    2
    31    21    22   ar
    32    22    23   ar
    33    33    29    1
    34    23    18   ar
    35     8     1   am
    36    17    10   ar
