@<TRIPOS>MOLECULE
*****
 33 34 0 0 0
SMALL
GASTEIGER

@<TRIPOS>ATOM
      1 N         142.6711  137.7071  161.5169 N.am    1  UNL1       -0.3046
      2 C         142.3525  138.4737  160.2675 C.2     1  UNL1        0.2425
      3 O         141.5359  139.7295  160.3458 O.2     1  UNL1       -0.2733
      4 H         143.2070  136.8829  161.4655 H       1  UNL1        0.1494
      5 C         143.0176  139.1236  163.6671 C.3     1  UNL1        0.0193
      6 C         142.5194  139.6128  164.9947 C.3     1  UNL1        0.0176
      7 C         141.1767  139.1746  165.4997 C.3     1  UNL1        0.0576
      8 C         140.3321  138.2473  164.6771 C.3     1  UNL1        0.0176
      9 C         140.8302  137.7582  163.3495 C.3     1  UNL1        0.0209
     10 C         142.1729  138.1963  162.8445 C.3     1  UNL1        0.0716
     11 N         140.6786  139.6639  166.8274 N.3     1  UNL1       -0.2741
     12 C         139.2253  139.5364  167.1764 C.3     1  UNL1        0.0896
     13 C         141.6337  140.2804  167.8059 C.3     1  UNL1        0.0576
     14 C         142.4988  139.4047  168.6630 C.3     1  UNL1        0.0173
     15 C         141.7237  141.7728  167.9273 C.3     1  UNL1        0.0173
     16 C         144.3603  139.5618  163.1621 C.3     1  UNL1        0.0017
     17 C         145.7740  141.6818  163.6692 C.3     1  UNL1        0.0000
     18 C         145.2906  140.3177  164.0638 C.3     1  UNL1        0.0001
     19 C         142.8507  137.9845  158.9398 C.3     1  UNL1        0.1759
     20 N         142.6734  136.5452  158.5563 N.am    1  UNL1       -0.2931
     21 C         143.1724  136.0559  157.2291 C.2     1  UNL1        0.2462
     22 O         143.8487  137.0057  156.2855 O.2     1  UNL1       -0.2701
     23 H         142.2295  135.9218  159.1756 H       1  UNL1        0.1502
     24 C         142.9952  134.6166  156.8455 C.ar    1  UNL1        0.0533
     25 C         141.9854  134.2371  155.8032 C.ar    1  UNL1        0.0045
     26 C         141.8082  132.7978  155.4197 C.ar    1  UNL1        0.0001
     27 C         142.6408  131.7381  156.0783 C.ar    1  UNL1        0.0039
     28 C         143.6505  132.1176  157.1206 C.ar    1  UNL1        0.0716
     29 C         143.8277  133.5569  157.5042 C.ar    1  UNL1        0.0084
     30 C         144.4831  131.0579  157.7793 C.3     1  UNL1        0.4186
     31 F         145.3156  129.9982  158.4380 F       1  UNL1       -0.1659
     32 F         143.5359  130.0057  157.2836 F       1  UNL1       -0.1659
     33 F         145.4302  132.1101  158.2750 F       1  UNL1       -0.1659
@<TRIPOS>BOND
     1    17    18    1
     2    18    16    1
     3     5    16    1
     4     5     6    1
     5     6     7    1
     6     7    11    1
     7    11    12    1
     8    11    13    1
     9    13    14    1
    10    13    15    1
    11     7     8    1
    12     8     9    1
    13     9    10    1
    14    10     1    1
    15     1     2   am
    16     2     3    2
    17     2    19    1
    18    19    20    1
    19    20    21   am
    20    21    22    2
    21    21    24    1
    22    24    25   ar
    23    25    26   ar
    24    26    27   ar
    25    27    28   ar
    26    28    30    1
    27    30    31    1
    28    30    32    1
    29    30    33    1
    30    28    29   ar
    31    10     5    1
    32    29    24   ar
    33     1     4    1
    34    20    23    1
@<TRIPOS>MOLECULE
*****
 33 34 0 0 0
SMALL
GASTEIGER

@<TRIPOS>ATOM
      1 N         141.6945  144.8197  161.0085 N.am    1  UNL1       -0.3046
      2 C         140.8165  145.3625  162.0968 C.2     1  UNL1        0.2425
      3 O         139.4261  145.8262  161.7777 O.2     1  UNL1       -0.2733
      4 H         142.6070  144.5154  161.2180 H       1  UNL1        0.1494
      5 C         140.2397  143.6423  159.2064 C.3     1  UNL1        0.0193
      6 C         139.7274  143.5632  157.7989 C.3     1  UNL1        0.0176
      7 C         140.1573  144.5825  156.7858 C.3     1  UNL1        0.0576
      8 C         141.0996  145.6808  157.1803 C.3     1  UNL1        0.0176
      9 C         141.6120  145.7599  158.5878 C.3     1  UNL1        0.0209
     10 C         141.1820  144.7406  159.6009 C.3     1  UNL1        0.0716
     11 N         139.6449  144.5034  155.3782 N.3     1  UNL1       -0.2741
     12 C         140.3639  143.6637  154.3644 C.3     1  UNL1        0.0896
     13 C         138.4135  145.2640  154.9845 C.3     1  UNL1        0.0576
     14 C         138.4046  146.7626  155.0499 C.3     1  UNL1        0.0173
     15 C         137.1909  144.5261  154.5254 C.3     1  UNL1        0.0173
     16 C         139.8098  142.6230  160.2194 C.3     1  UNL1        0.0017
     17 C         138.1163  142.3548  162.1714 C.3     1  UNL1        0.0000
     18 C         138.3961  142.6138  160.7207 C.3     1  UNL1        0.0001
     19 C         141.3289  145.4416  163.5044 C.3     1  UNL1        0.1759
     20 N         141.2899  144.2287  164.3861 N.am    1  UNL1       -0.2931
     21 C         140.0437  143.8986  165.1528 C.2     1  UNL1        0.2462
     22 O         138.8365  144.7814  165.0378 O.2     1  UNL1       -0.2701
     23 H         142.0823  143.6493  164.4615 H       1  UNL1        0.1502
     24 C         140.0047  142.6857  166.0344 C.ar    1  UNL1        0.0533
     25 C         140.5068  142.7676  167.4455 C.ar    1  UNL1        0.0045
     26 C         140.4678  141.5547  168.3271 C.ar    1  UNL1        0.0001
     27 C         139.9265  140.2598  167.7976 C.ar    1  UNL1        0.0039
     28 C         139.4243  140.1778  166.3866 C.ar    1  UNL1        0.0716
     29 C         139.4634  141.3908  165.5050 C.ar    1  UNL1        0.0084
     30 C         138.8831  138.8829  165.8572 C.3     1  UNL1        0.4186
     31 F         138.3418  137.5881  165.3277 F       1  UNL1       -0.1659
     32 F         140.2168  138.5766  165.2430 F       1  UNL1       -0.1659
     33 F         137.5493  139.1893  166.4714 F       1  UNL1       -0.1659
@<TRIPOS>BOND
     1    17    18    1
     2    18    16    1
     3     5    16    1
     4     5     6    1
     5     6     7    1
     6     7    11    1
     7    11    12    1
     8    11    13    1
     9    13    14    1
    10    13    15    1
    11     7     8    1
    12     8     9    1
    13     9    10    1
    14    10     1    1
    15     1     2   am
    16     2     3    2
    17     2    19    1
    18    19    20    1
    19    20    21   am
    20    21    22    2
    21    21    24    1
    22    24    25   ar
    23    25    26   ar
    24    26    27   ar
    25    27    28   ar
    26    28    30    1
    27    30    31    1
    28    30    32    1
    29    30    33    1
    30    28    29   ar
    31    10     5    1
    32    29    24   ar
    33     1     4    1
    34    20    23    1
@<TRIPOS>MOLECULE
*****
 33 34 0 0 0
SMALL
GASTEIGER

@<TRIPOS>ATOM
      1 N         139.4616  139.7521  160.1323 N.am    1  UNL1       -0.3046
      2 C         138.7475  139.1270  161.2939 C.2     1  UNL1        0.2425
      3 O         138.9018  137.6603  161.5680 O.2     1  UNL1       -0.2733
      4 H         139.3603  140.7147  159.9524 H       1  UNL1        0.1494
      5 C         141.7136  138.5358  159.6861 C.3     1  UNL1        0.0193
      6 C         142.5818  137.6943  158.7985 C.3     1  UNL1        0.0176
      7 C         142.0664  137.2274  157.4695 C.3     1  UNL1        0.0576
      8 C         140.6826  137.6020  157.0281 C.3     1  UNL1        0.0176
      9 C         139.8144  138.4436  157.9157 C.3     1  UNL1        0.0209
     10 C         140.3299  138.9105  159.2447 C.3     1  UNL1        0.0716
     11 N         142.9347  136.3858  156.5818 N.3     1  UNL1       -0.2741
     12 C         143.9274  137.0388  155.6664 C.3     1  UNL1        0.0896
     13 C         142.8103  134.8912  156.6097 C.3     1  UNL1        0.0576
     14 C         141.8825  134.1979  155.6564 C.3     1  UNL1        0.0173
     15 C         143.6135  134.0899  157.5909 C.3     1  UNL1        0.0173
     16 C         142.2291  139.0027  161.0151 C.3     1  UNL1        0.0017
     17 C         142.0554  138.3890  163.5337 C.3     1  UNL1        0.0000
     18 C         142.4302  138.0187  162.1293 C.3     1  UNL1        0.0001
     19 C         137.8792  139.9686  162.1816 C.3     1  UNL1        0.1759
     20 N         138.4818  140.7026  163.3426 N.am    1  UNL1       -0.2931
     21 C         138.7659  139.9758  164.6236 C.2     1  UNL1        0.2462
     22 O         138.4474  138.5149  164.7435 O.2     1  UNL1       -0.2701
     23 H         138.6909  141.6614  163.2639 H       1  UNL1        0.1502
     24 C         139.3686  140.7098  165.7847 C.ar    1  UNL1        0.0533
     25 C         139.9907  142.0589  165.5778 C.ar    1  UNL1        0.0045
     26 C         140.5933  142.7928  166.7389 C.ar    1  UNL1        0.0001
     27 C         140.5738  142.1777  168.1068 C.ar    1  UNL1        0.0039
     28 C         139.9517  140.8286  168.3137 C.ar    1  UNL1        0.0716
     29 C         139.3491  140.0946  167.1526 C.ar    1  UNL1        0.0084
     30 C         139.9322  140.2134  169.6816 C.3     1  UNL1        0.4186
     31 F         139.9127  139.5982  171.0495 F       1  UNL1       -0.1659
     32 F         138.6953  140.9937  170.0149 F       1  UNL1       -0.1659
     33 F         141.1691  139.4330  169.3483 F       1  UNL1       -0.1659
@<TRIPOS>BOND
     1    17    18    1
     2    18    16    1
     3     5    16    1
     4     5     6    1
     5     6     7    1
     6     7    11    1
     7    11    12    1
     8    11    13    1
     9    13    14    1
    10    13    15    1
    11     7     8    1
    12     8     9    1
    13     9    10    1
    14    10     1    1
    15     1     2   am
    16     2     3    2
    17     2    19    1
    18    19    20    1
    19    20    21   am
    20    21    22    2
    21    21    24    1
    22    24    25   ar
    23    25    26   ar
    24    26    27   ar
    25    27    28   ar
    26    28    30    1
    27    30    31    1
    28    30    32    1
    29    30    33    1
    30    28    29   ar
    31    10     5    1
    32    29    24   ar
    33     1     4    1
    34    20    23    1
@<TRIPOS>MOLECULE
*****
 33 34 0 0 0
SMALL
GASTEIGER

@<TRIPOS>ATOM
      1 N         138.5934  138.8049  160.5010 N.am    1  UNL1       -0.3046
      2 C         139.8483  139.0791  159.7263 C.2     1  UNL1        0.2425
      3 O         141.1147  139.4296  160.4497 O.2     1  UNL1       -0.2733
      4 H         137.7622  138.5749  160.0262 H       1  UNL1        0.1494
      5 C         138.2952  140.1780  162.6863 C.3     1  UNL1        0.0193
      6 C         138.3068  140.2543  164.1843 C.3     1  UNL1        0.0176
      7 C         138.6282  139.0338  164.9950 C.3     1  UNL1        0.0576
      8 C         138.9379  137.7371  164.3077 C.3     1  UNL1        0.0176
      9 C         138.9263  137.6608  162.8097 C.3     1  UNL1        0.0209
     10 C         138.6050  138.8813  161.9991 C.3     1  UNL1        0.0716
     11 N         138.6397  139.1102  166.4931 N.3     1  UNL1       -0.2741
     12 C         137.5315  138.4815  167.2846 C.3     1  UNL1        0.0896
     13 C         139.7595  139.8152  167.1995 C.3     1  UNL1        0.0576
     14 C         139.5004  140.5229  168.4965 C.3     1  UNL1        0.0173
     15 C         141.1384  139.8125  166.6090 C.3     1  UNL1        0.0173
     16 C         137.9739  141.3985  161.8757 C.3     1  UNL1        0.0017
     17 C         138.6413  143.7801  162.6709 C.3     1  UNL1        0.0000
     18 C         137.6225  142.6844  162.5632 C.3     1  UNL1        0.0001
     19 C         139.8367  139.0027  158.2283 C.3     1  UNL1        0.1759
     20 N         140.2700  137.7434  157.5381 N.am    1  UNL1       -0.2931
     21 C         141.7165  137.5318  157.2023 C.2     1  UNL1        0.2462
     22 O         142.7297  138.5795  157.5567 O.2     1  UNL1       -0.2701
     23 H         139.6049  137.0557  157.3055 H       1  UNL1        0.1502
     24 C         142.1498  136.2724  156.5122 C.ar    1  UNL1        0.0533
     25 C         141.6684  135.9747  155.1231 C.ar    1  UNL1        0.0045
     26 C         142.1017  134.7154  154.4330 C.ar    1  UNL1        0.0001
     27 C         143.0164  133.7538  155.1319 C.ar    1  UNL1        0.0039
     28 C         143.4978  134.0515  156.5210 C.ar    1  UNL1        0.0716
     29 C         143.0645  135.3108  157.2111 C.ar    1  UNL1        0.0084
     30 C         144.4125  133.0898  157.2200 C.3     1  UNL1        0.4186
     31 F         145.3273  132.1282  157.9190 F       1  UNL1       -0.1659
     32 F         144.7420  132.4475  155.9051 F       1  UNL1       -0.1659
     33 F         144.0830  133.7321  158.5349 F       1  UNL1       -0.1659
@<TRIPOS>BOND
     1    17    18    1
     2    18    16    1
     3     5    16    1
     4     5     6    1
     5     6     7    1
     6     7    11    1
     7    11    12    1
     8    11    13    1
     9    13    14    1
    10    13    15    1
    11     7     8    1
    12     8     9    1
    13     9    10    1
    14    10     1    1
    15     1     2   am
    16     2     3    2
    17     2    19    1
    18    19    20    1
    19    20    21   am
    20    21    22    2
    21    21    24    1
    22    24    25   ar
    23    25    26   ar
    24    26    27   ar
    25    27    28   ar
    26    28    30    1
    27    30    31    1
    28    30    32    1
    29    30    33    1
    30    28    29   ar
    31    10     5    1
    32    29    24   ar
    33     1     4    1
    34    20    23    1
@<TRIPOS>MOLECULE
*****
 33 34 0 0 0
SMALL
GASTEIGER

@<TRIPOS>ATOM
      1 N         141.0067  144.3117  161.5567 N.am    1  UNL1       -0.3046
      2 C         140.1140  144.9977  162.5479 C.2     1  UNL1        0.2425
      3 O         138.9034  145.7463  162.0744 O.2     1  UNL1       -0.2733
      4 H         141.8013  143.8204  161.8675 H       1  UNL1        0.1494
      5 C         140.1788  143.1554  159.3825 C.3     1  UNL1        0.0193
      6 C         139.8611  143.2181  157.9179 C.3     1  UNL1        0.0176
      7 C         140.0535  144.4998  157.1629 C.3     1  UNL1        0.0576
      8 C         140.5637  145.7189  157.8725 C.3     1  UNL1        0.0176
      9 C         140.8814  145.6562  159.3371 C.3     1  UNL1        0.0209
     10 C         140.6890  144.3744  160.0921 C.3     1  UNL1        0.0716
     11 N         139.7358  144.5625  155.6982 N.3     1  UNL1       -0.2741
     12 C         140.5762  143.8025  154.7153 C.3     1  UNL1        0.0896
     13 C         138.5777  145.3851  155.2165 C.3     1  UNL1        0.0576
     14 C         138.6913  146.8798  155.1603 C.3     1  UNL1        0.0173
     15 C         137.3059  144.7132  154.7911 C.3     1  UNL1        0.0173
     16 C         139.9864  141.8736  160.1375 C.3     1  UNL1        0.0017
     17 C         137.9402  142.3604  161.6626 C.3     1  UNL1        0.0000
     18 C         138.6252  141.4985  160.6438 C.3     1  UNL1        0.0001
     19 C         140.4317  144.9350  164.0125 C.3     1  UNL1        0.1759
     20 N         139.8271  143.8597  164.8658 N.am    1  UNL1       -0.2931
     21 C         140.3166  142.4466  164.7502 C.2     1  UNL1        0.2462
     22 O         141.4107  142.1087  163.7812 O.2     1  UNL1       -0.2701
     23 H         139.1090  144.0814  165.5018 H       1  UNL1        0.1502
     24 C         139.7120  141.3712  165.6035 C.ar    1  UNL1        0.0533
     25 C         138.6848  140.4437  165.0251 C.ar    1  UNL1        0.0045
     26 C         138.0802  139.3683  165.8784 C.ar    1  UNL1        0.0001
     27 C         138.5029  139.2205  167.3100 C.ar    1  UNL1        0.0039
     28 C         139.5301  140.1481  167.8884 C.ar    1  UNL1        0.0716
     29 C         140.1346  141.2234  167.0351 C.ar    1  UNL1        0.0084
     30 C         139.9527  140.0003  169.3200 C.3     1  UNL1        0.4186
     31 F         140.3754  139.8525  170.7516 F       1  UNL1       -0.1659
     32 F         138.5815  140.4122  169.7673 F       1  UNL1       -0.1659
     33 F         141.3239  139.5883  168.8727 F       1  UNL1       -0.1659
@<TRIPOS>BOND
     1    17    18    1
     2    18    16    1
     3     5    16    1
     4     5     6    1
     5     6     7    1
     6     7    11    1
     7    11    12    1
     8    11    13    1
     9    13    14    1
    10    13    15    1
    11     7     8    1
    12     8     9    1
    13     9    10    1
    14    10     1    1
    15     1     2   am
    16     2     3    2
    17     2    19    1
    18    19    20    1
    19    20    21   am
    20    21    22    2
    21    21    24    1
    22    24    25   ar
    23    25    26   ar
    24    26    27   ar
    25    27    28   ar
    26    28    30    1
    27    30    31    1
    28    30    32    1
    29    30    33    1
    30    28    29   ar
    31    10     5    1
    32    29    24   ar
    33     1     4    1
    34    20    23    1
@<TRIPOS>MOLECULE
*****
 33 34 0 0 0
SMALL
GASTEIGER

@<TRIPOS>ATOM
      1 N         140.4081  144.3835  159.5861 N.am    1  UNL1       -0.3046
      2 C         140.8231  145.2945  158.4691 C.2     1  UNL1        0.2425
      3 O         142.2484  145.7496  158.3626 O.2     1  UNL1       -0.2733
      4 H         139.4726  144.0848  159.6559 H       1  UNL1        0.1494
      5 C         141.3897  144.4834  161.9895 C.3     1  UNL1        0.0193
      6 C         142.4000  144.0274  163.0001 C.3     1  UNL1        0.0176
      7 C         143.4391  143.0154  162.6178 C.3     1  UNL1        0.0576
      8 C         143.4679  142.4595  161.2249 C.3     1  UNL1        0.0176
      9 C         142.4576  142.9155  160.2144 C.3     1  UNL1        0.0209
     10 C         141.4184  143.9274  160.5967 C.3     1  UNL1        0.0716
     11 N         144.4495  142.5594  163.6284 N.3     1  UNL1       -0.2741
     12 C         145.6840  141.8347  163.1804 C.3     1  UNL1        0.0896
     13 C         144.2253  142.8282  165.0870 C.3     1  UNL1        0.0576
     14 C         144.8993  143.9945  165.7469 C.3     1  UNL1        0.0173
     15 C         143.3272  141.9306  165.8856 C.3     1  UNL1        0.0173
     16 C         140.3505  145.4954  162.3718 C.3     1  UNL1        0.0017
     17 C         138.2026  144.0914  162.7783 C.3     1  UNL1        0.0000
     18 C         139.2065  145.0980  163.2568 C.3     1  UNL1        0.0001
     19 C         139.8127  145.7505  157.4584 C.3     1  UNL1        0.1759
     20 N         140.0278  147.0314  156.7081 N.am    1  UNL1       -0.2931
     21 C         139.2061  147.3342  155.4903 C.2     1  UNL1        0.2462
     22 O         138.1693  146.3562  155.0229 O.2     1  UNL1       -0.2701
     23 H         140.7084  147.6732  157.0149 H       1  UNL1        0.1502
     24 C         139.4213  148.6151  154.7399 C.ar    1  UNL1        0.0533
     25 C         140.1525  148.6034  153.4303 C.ar    1  UNL1        0.0045
     26 C         140.3676  149.8842  152.6799 C.ar    1  UNL1        0.0001
     27 C         139.8514  151.1768  153.2391 C.ar    1  UNL1        0.0039
     28 C         139.1202  151.1886  154.5487 C.ar    1  UNL1        0.0716
     29 C         138.9051  149.9077  155.2991 C.ar    1  UNL1        0.0084
     30 C         138.6041  152.4812  155.1080 C.3     1  UNL1        0.4186
     31 F         138.0879  153.7738  155.6672 F       1  UNL1       -0.1659
     32 F         138.8788  151.9894  156.4982 F       1  UNL1       -0.1659
     33 F         138.3294  152.9730  153.7178 F       1  UNL1       -0.1659
@<TRIPOS>BOND
     1    17    18    1
     2    18    16    1
     3     5    16    1
     4     5     6    1
     5     6     7    1
     6     7    11    1
     7    11    12    1
     8    11    13    1
     9    13    14    1
    10    13    15    1
    11     7     8    1
    12     8     9    1
    13     9    10    1
    14    10     1    1
    15     1     2   am
    16     2     3    2
    17     2    19    1
    18    19    20    1
    19    20    21   am
    20    21    22    2
    21    21    24    1
    22    24    25   ar
    23    25    26   ar
    24    26    27   ar
    25    27    28   ar
    26    28    30    1
    27    30    31    1
    28    30    32    1
    29    30    33    1
    30    28    29   ar
    31    10     5    1
    32    29    24   ar
    33     1     4    1
    34    20    23    1
@<TRIPOS>MOLECULE
*****
 33 34 0 0 0
SMALL
GASTEIGER

@<TRIPOS>ATOM
      1 N         137.7455  140.6195  163.6700 N.am    1  UNL1       -0.3046
      2 C         138.3442  139.8528  162.5283 C.2     1  UNL1        0.2425
      3 O         139.6863  139.2013  162.6843 O.2     1  UNL1       -0.2733
      4 H         136.8646  141.0471  163.5676 H       1  UNL1        0.1494
      5 C         139.2551  141.9849  165.2846 C.3     1  UNL1        0.0193
      6 C         139.9984  142.1003  166.5823 C.3     1  UNL1        0.0176
      7 C         139.9755  140.9657  167.5631 C.3     1  UNL1        0.0576
      8 C         139.2093  139.7157  167.2463 C.3     1  UNL1        0.0176
      9 C         138.4660  139.6003  165.9486 C.3     1  UNL1        0.0209
     10 C         138.4889  140.7350  164.9677 C.3     1  UNL1        0.0716
     11 N         140.7189  141.0811  168.8609 N.3     1  UNL1       -0.2741
     12 C         140.6961  139.9465  169.8418 C.3     1  UNL1        0.0896
     13 C         141.4852  142.3311  169.1777 C.3     1  UNL1        0.0576
     14 C         142.9539  142.4057  168.8823 C.3     1  UNL1        0.0173
     15 C         140.7827  143.5065  169.7900 C.3     1  UNL1        0.0173
     16 C         139.2780  143.1195  164.3037 C.3     1  UNL1        0.0017
     17 C         141.2787  144.6954  163.7902 C.3     1  UNL1        0.0000
     18 C         140.0673  144.3582  164.6080 C.3     1  UNL1        0.0001
     19 C         137.6008  139.7373  161.2305 C.3     1  UNL1        0.1759
     20 N         138.0771  140.4903  160.0238 N.am    1  UNL1       -0.2931
     21 C         138.1084  141.9898  160.0397 C.2     1  UNL1        0.2462
     22 O         137.6635  142.7365  161.2622 O.2     1  UNL1       -0.2701
     23 H         138.3692  140.0003  159.2214 H       1  UNL1        0.1502
     24 C         138.5847  142.7429  158.8329 C.ar    1  UNL1        0.0533
     25 C         137.9225  142.5270  157.5045 C.ar    1  UNL1        0.0045
     26 C         138.3988  143.2800  156.2979 C.ar    1  UNL1        0.0001
     27 C         139.5374  144.2489  156.4196 C.ar    1  UNL1        0.0039
     28 C         140.1996  144.4648  157.7481 C.ar    1  UNL1        0.0716
     29 C         139.7233  143.7118  158.9547 C.ar    1  UNL1        0.0084
     30 C         141.3382  145.4338  157.8698 C.3     1  UNL1        0.4186
     31 F         142.4768  146.4027  157.9916 F       1  UNL1       -0.1659
     32 F         142.0289  144.5025  158.8216 F       1  UNL1       -0.1659
     33 F         140.6475  146.3650  156.9181 F       1  UNL1       -0.1659
@<TRIPOS>BOND
     1    17    18    1
     2    18    16    1
     3     5    16    1
     4     5     6    1
     5     6     7    1
     6     7    11    1
     7    11    12    1
     8    11    13    1
     9    13    14    1
    10    13    15    1
    11     7     8    1
    12     8     9    1
    13     9    10    1
    14    10     1    1
    15     1     2   am
    16     2     3    2
    17     2    19    1
    18    19    20    1
    19    20    21   am
    20    21    22    2
    21    21    24    1
    22    24    25   ar
    23    25    26   ar
    24    26    27   ar
    25    27    28   ar
    26    28    30    1
    27    30    31    1
    28    30    32    1
    29    30    33    1
    30    28    29   ar
    31    10     5    1
    32    29    24   ar
    33     1     4    1
    34    20    23    1
@<TRIPOS>MOLECULE
*****
 33 34 0 0 0
SMALL
GASTEIGER

@<TRIPOS>ATOM
      1 N         139.9818  142.7770  164.0684 N.am    1  UNL1       -0.3046
      2 C         139.0637  143.9571  163.9484 C.2     1  UNL1        0.2425
      3 O         138.8194  144.8410  165.1354 O.2     1  UNL1       -0.2733
      4 H         140.1422  142.1969  163.2893 H       1  UNL1        0.1494
      5 C         142.1510  142.5355  165.4777 C.3     1  UNL1        0.0193
      6 C         142.8247  142.2392  166.7847 C.3     1  UNL1        0.0176
      7 C         142.0029  141.8882  167.9895 C.3     1  UNL1        0.0576
      8 C         140.5075  141.8335  167.8873 C.3     1  UNL1        0.0176
      9 C         139.8338  142.1298  166.5803 C.3     1  UNL1        0.0209
     10 C         140.6556  142.4807  165.3755 C.3     1  UNL1        0.0716
     11 N         142.6767  141.5920  169.2966 N.3     1  UNL1       -0.2741
     12 C         143.8866  142.3757  169.7112 C.3     1  UNL1        0.0896
     13 C         142.1406  140.5120  170.1889 C.3     1  UNL1        0.0576
     14 C         142.4513  139.0740  169.8960 C.3     1  UNL1        0.0173
     15 C         141.2938  140.8700  171.3741 C.3     1  UNL1        0.0173
     16 C         142.9728  142.8864  164.2729 C.3     1  UNL1        0.0017
     17 C         142.4761  145.3941  163.8098 C.3     1  UNL1        0.0000
     18 C         143.4578  144.2926  164.0796 C.3     1  UNL1        0.0001
     19 C         138.3900  144.2534  162.6413 C.3     1  UNL1        0.1759
     20 N         139.1475  144.1015  161.3557 N.am    1  UNL1       -0.2931
     21 C         139.9516  145.2484  160.8190 C.2     1  UNL1        0.2462
     22 O         139.9981  146.5472  161.5680 O.2     1  UNL1       -0.2701
     23 H         139.1170  143.2491  160.8641 H       1  UNL1        0.1502
     24 C         140.7092  145.0966  159.5333 C.ar    1  UNL1        0.0533
     25 C         140.2913  145.8736  158.3203 C.ar    1  UNL1        0.0045
     26 C         141.0489  145.7218  157.0346 C.ar    1  UNL1        0.0001
     27 C         142.2244  144.7928  156.9620 C.ar    1  UNL1        0.0039
     28 C         142.6423  144.0158  158.1750 C.ar    1  UNL1        0.0716
     29 C         141.8847  144.1676  159.4607 C.ar    1  UNL1        0.0084
     30 C         143.8178  143.0868  158.1024 C.3     1  UNL1        0.4186
     31 F         144.9933  142.1579  158.0298 F       1  UNL1       -0.1659
     32 F         143.9271  143.1082  159.5983 F       1  UNL1       -0.1659
     33 F         143.7085  143.0655  156.6066 F       1  UNL1       -0.1659
@<TRIPOS>BOND
     1    17    18    1
     2    18    16    1
     3     5    16    1
     4     5     6    1
     5     6     7    1
     6     7    11    1
     7    11    12    1
     8    11    13    1
     9    13    14    1
    10    13    15    1
    11     7     8    1
    12     8     9    1
    13     9    10    1
    14    10     1    1
    15     1     2   am
    16     2     3    2
    17     2    19    1
    18    19    20    1
    19    20    21   am
    20    21    22    2
    21    21    24    1
    22    24    25   ar
    23    25    26   ar
    24    26    27   ar
    25    27    28   ar
    26    28    30    1
    27    30    31    1
    28    30    32    1
    29    30    33    1
    30    28    29   ar
    31    10     5    1
    32    29    24   ar
    33     1     4    1
    34    20    23    1
@<TRIPOS>MOLECULE
*****
 33 34 0 0 0
SMALL
GASTEIGER

@<TRIPOS>ATOM
      1 N         144.0808  139.6185  164.0617 N.am    1  UNL1       -0.3046
      2 C         143.3778  138.7257  163.0826 C.2     1  UNL1        0.2425
      3 O         141.9871  138.2437  163.3717 O.2     1  UNL1       -0.2733
      4 H         144.9936  139.9349  163.8719 H       1  UNL1        0.1494
      5 C         142.8935  141.4344  165.4910 C.3     1  UNL1        0.0193
      6 C         142.2058  141.8451  166.7592 C.3     1  UNL1        0.0176
      7 C         142.0179  140.8507  167.8664 C.3     1  UNL1        0.0576
      8 C         142.5176  139.4456  167.7054 C.3     1  UNL1        0.0176
      9 C         143.2052  139.0349  166.4372 C.3     1  UNL1        0.0209
     10 C         143.3932  140.0293  165.3300 C.3     1  UNL1        0.0716
     11 N         141.3302  141.2615  169.1346 N.3     1  UNL1       -0.2741
     12 C         140.3906  140.3136  169.8193 C.3     1  UNL1        0.0896
     13 C         141.5821  142.6202  169.7182 C.3     1  UNL1        0.0576
     14 C         140.5004  143.6591  169.6941 C.3     1  UNL1        0.0173
     15 C         142.9157  142.9399  170.3260 C.3     1  UNL1        0.0173
     16 C         143.0814  142.4287  164.3837 C.3     1  UNL1        0.0017
     17 C         143.7063  144.9118  163.9438 C.3     1  UNL1        0.0000
     18 C         144.0220  143.5831  164.5641 C.3     1  UNL1        0.0001
     19 C         144.0655  138.3149  161.8143 C.3     1  UNL1        0.1759
     20 N         143.2695  137.7324  160.6843 N.am    1  UNL1       -0.2931
     21 C         143.0139  138.5452  159.4499 C.2     1  UNL1        0.2462
     22 O         143.5544  139.9405  159.3454 O.2     1  UNL1       -0.2701
     23 H         142.9148  136.8166  160.7529 H       1  UNL1        0.1502
     24 C         142.2178  137.9626  158.3198 C.ar    1  UNL1        0.0533
     25 C         140.8500  138.4962  158.0127 C.ar    1  UNL1        0.0045
     26 C         140.0541  137.9137  156.8827 C.ar    1  UNL1        0.0001
     27 C         140.6259  136.7975  156.0597 C.ar    1  UNL1        0.0039
     28 C         141.9937  136.2639  156.3668 C.ar    1  UNL1        0.0716
     29 C         142.7897  136.8465  157.4968 C.ar    1  UNL1        0.0084
     30 C         142.5655  135.1478  155.5438 C.3     1  UNL1        0.4186
     31 F         143.1373  134.0317  154.7209 F       1  UNL1       -0.1659
     32 F         143.8902  135.8507  155.5110 F       1  UNL1       -0.1659
     33 F         141.2408  134.4449  155.5767 F       1  UNL1       -0.1659
@<TRIPOS>BOND
     1    17    18    1
     2    18    16    1
     3     5    16    1
     4     5     6    1
     5     6     7    1
     6     7    11    1
     7    11    12    1
     8    11    13    1
     9    13    14    1
    10    13    15    1
    11     7     8    1
    12     8     9    1
    13     9    10    1
    14    10     1    1
    15     1     2   am
    16     2     3    2
    17     2    19    1
    18    19    20    1
    19    20    21   am
    20    21    22    2
    21    21    24    1
    22    24    25   ar
    23    25    26   ar
    24    26    27   ar
    25    27    28   ar
    26    28    30    1
    27    30    31    1
    28    30    32    1
    29    30    33    1
    30    28    29   ar
    31    10     5    1
    32    29    24   ar
    33     1     4    1
    34    20    23    1
