@<TRIPOS>MOLECULE
*****
 39 43 0 0 0
SMALL
GASTEIGER

@<TRIPOS>ATOM
      1 C         142.2898  138.6575  162.1403 C.3     1  UNL1        0.0758
      2 C         140.9401  138.5750  161.4911 C.3     1  UNL1        0.0370
      3 C         140.8318  138.4202  160.0031 C.3     1  UNL1        0.0741
      4 N         142.0731  138.3479  159.1642 N.3     1  UNL1       -0.2688
      5 C         143.4229  138.4305  159.8134 C.3     1  UNL1        0.0741
      6 C         143.5313  138.5853  161.3014 C.3     1  UNL1        0.0370
      7 C         142.8832  140.8009  170.1904 C.3     1  UNL1        0.0897
      8 N         142.7748  140.6461  168.7023 N.3     1  UNL1       -0.2683
      9 C         142.7231  139.2767  168.0925 C.3     1  UNL1        0.0940
     10 C         142.6148  139.1219  166.6045 C.3     1  UNL1        0.1125
     11 N         142.5582  140.3365  165.7262 N.am    1  UNL1       -0.2593
     12 C         142.4499  140.1817  164.2382 C.2     1  UNL1        0.3042
     13 O         142.3932  141.3964  163.3599 O.2     1  UNL1       -0.2526
     14 N         142.3981  138.8123  163.6284 N.am    1  UNL1       -0.2903
     15 C         142.6099  141.7060  166.3360 C.3     1  UNL1        0.1153
     16 C         142.7182  141.8607  167.8241 C.3     1  UNL1        0.0969
     17 H         142.4353  138.0151  164.2048 H       1  UNL1        0.1509
     18 C         142.5533  142.9207  165.4578 C.ar    1  UNL1       -0.0029
     19 C         143.8231  143.5690  164.9917 C.ar    1  UNL1       -0.0026
     20 C         143.7665  144.7838  164.1134 C.ar    1  UNL1       -0.0003
     21 C         142.4400  145.3501  163.7013 C.ar    1  UNL1       -0.0000
     22 C         141.1702  144.7017  164.1675 C.ar    1  UNL1       -0.0003
     23 C         141.2269  143.4871  165.0457 C.ar    1  UNL1       -0.0026
     24 C         141.9648  138.1932  157.6761 C.3     1  UNL1        0.1007
     25 C         142.7268  137.1062  156.9777 C.ar    1  UNL1        0.0129
     26 C         143.5901  137.2753  155.7628 C.ar    1  UNL1        0.0176
     27 C         144.1561  135.9328  155.4058 C.ar    1  UNL1        0.0799
     28 N         143.6425  134.9340  156.4001 N.ar    1  UNL1       -0.3038
     29 C         142.7591  135.6592  157.3716 C.ar    1  UNL1        0.0772
     30 C         143.9571  133.4675  156.4195 C.ar    1  UNL1        0.0640
     31 C         144.5835  132.8508  157.6350 C.ar    1  UNL1        0.0175
     32 C         144.8980  131.3842  157.6544 C.ar    1  UNL1        0.0053
     33 C         144.5862  130.5344  156.4583 C.ar    1  UNL1        0.0715
     34 C         143.9598  131.1511  155.2428 C.ar    1  UNL1        0.0053
     35 C         143.6453  132.6176  155.2235 C.ar    1  UNL1        0.0175
     36 C         144.9008  129.0680  156.4777 C.3     1  UNL1        0.4186
     37 F         145.2153  127.6014  156.4971 F       1  UNL1       -0.1659
     38 F         144.5792  129.0183  157.9419 F       1  UNL1       -0.1659
     39 F         145.2224  129.1176  155.0134 F       1  UNL1       -0.1659
@<TRIPOS>BOND
     1     7     8    1
     2     8     9    1
     3     9    10    1
     4    10    11    1
     5    11    12   am
     6    12    13    2
     7    12    14   am
     8    14     1    1
     9     1     2    1
    10     2     3    1
    11     3     4    1
    12     4    24    1
    13    24    25    1
    14    25    26   ar
    15    26    27   ar
    16    27    28   ar
    17    28    30    1
    18    30    31   ar
    19    31    32   ar
    20    32    33   ar
    21    33    36    1
    22    36    37    1
    23    36    38    1
    24    36    39    1
    25    33    34   ar
    26    34    35   ar
    27    28    29   ar
    28     4     5    1
    29     5     6    1
    30    11    15    1
    31    15    18    1
    32    18    19   ar
    33    19    20   ar
    34    20    21   ar
    35    21    22   ar
    36    22    23   ar
    37    15    16    1
    38    16     8    1
    39     6     1    1
    40    23    18   ar
    41    29    25   ar
    42    35    30   ar
    43    14    17    1
@<TRIPOS>MOLECULE
*****
 39 43 0 0 0
SMALL
GASTEIGER

@<TRIPOS>ATOM
      1 C         141.1717  138.9094  161.6442 C.3     1  UNL1        0.0758
      2 C         142.4241  138.1535  161.3123 C.3     1  UNL1        0.0370
      3 C         142.8322  137.9699  159.8806 C.3     1  UNL1        0.0741
      4 N         141.9880  138.5423  158.7808 N.3     1  UNL1       -0.2688
      5 C         140.7355  139.2982  159.1127 C.3     1  UNL1        0.0741
      6 C         140.3274  139.4818  160.5443 C.3     1  UNL1        0.0370
      7 C         139.5182  141.0754  169.5388 C.3     1  UNL1        0.0897
      8 N         139.9263  140.8919  168.1071 N.3     1  UNL1       -0.2683
      9 C         139.5392  139.6436  167.3710 C.3     1  UNL1        0.0940
     10 C         139.9473  139.4600  165.9393 C.3     1  UNL1        0.1125
     11 N         140.7426  140.5248  165.2437 N.am    1  UNL1       -0.2593
     12 C         141.1507  140.3412  163.8120 C.2     1  UNL1        0.3042
     13 O         141.9460  141.4059  163.1164 O.2     1  UNL1       -0.2526
     14 N         140.7636  139.0929  163.0759 N.am    1  UNL1       -0.2903
     15 C         141.1297  141.7730  165.9798 C.3     1  UNL1        0.1153
     16 C         140.7216  141.9566  167.4115 C.3     1  UNL1        0.0969
     17 H         140.2416  138.3941  163.5324 H       1  UNL1        0.1509
     18 C         141.9250  142.8378  165.2842 C.ar    1  UNL1       -0.0029
     19 C         143.4239  142.8044  165.3294 C.ar    1  UNL1       -0.0026
     20 C         144.2192  143.8692  164.6338 C.ar    1  UNL1       -0.0003
     21 C         143.5155  144.9674  163.8930 C.ar    1  UNL1       -0.0000
     22 C         142.0165  145.0009  163.8479 C.ar    1  UNL1       -0.0003
     23 C         141.2213  143.9361  164.5435 C.ar    1  UNL1       -0.0026
     24 C         142.3961  138.3587  157.3491 C.3     1  UNL1        0.1007
     25 C         142.2001  137.0319  156.6776 C.ar    1  UNL1        0.0129
     26 C         141.0091  136.6237  155.8622 C.ar    1  UNL1        0.0176
     27 C         141.2337  135.2197  155.3842 C.ar    1  UNL1        0.0799
     28 N         142.5636  134.7602  155.9042 N.ar    1  UNL1       -0.3038
     29 C         143.1609  135.8802  156.7035 C.ar    1  UNL1        0.0772
     30 C         143.1867  133.4167  155.6665 C.ar    1  UNL1        0.0640
     31 C         142.7209  132.5656  154.5225 C.ar    1  UNL1        0.0175
     32 C         143.3440  131.2220  154.2849 C.ar    1  UNL1        0.0053
     33 C         144.4331  130.7295  155.1911 C.ar    1  UNL1        0.0715
     34 C         144.8990  131.5806  156.3351 C.ar    1  UNL1        0.0053
     35 C         144.2758  132.9241  156.5727 C.ar    1  UNL1        0.0175
     36 C         145.0562  129.3860  154.9534 C.3     1  UNL1        0.4186
     37 F         145.6794  128.0424  154.7157 F       1  UNL1       -0.1659
     38 F         145.0216  129.1091  156.4272 F       1  UNL1       -0.1659
     39 F         145.0909  129.6628  153.4796 F       1  UNL1       -0.1659
@<TRIPOS>BOND
     1     7     8    1
     2     8     9    1
     3     9    10    1
     4    10    11    1
     5    11    12   am
     6    12    13    2
     7    12    14   am
     8    14     1    1
     9     1     2    1
    10     2     3    1
    11     3     4    1
    12     4    24    1
    13    24    25    1
    14    25    26   ar
    15    26    27   ar
    16    27    28   ar
    17    28    30    1
    18    30    31   ar
    19    31    32   ar
    20    32    33   ar
    21    33    36    1
    22    36    37    1
    23    36    38    1
    24    36    39    1
    25    33    34   ar
    26    34    35   ar
    27    28    29   ar
    28     4     5    1
    29     5     6    1
    30    11    15    1
    31    15    18    1
    32    18    19   ar
    33    19    20   ar
    34    20    21   ar
    35    21    22   ar
    36    22    23   ar
    37    15    16    1
    38    16     8    1
    39     6     1    1
    40    23    18   ar
    41    29    25   ar
    42    35    30   ar
    43    14    17    1
@<TRIPOS>MOLECULE
*****
 39 43 0 0 0
SMALL
GASTEIGER

@<TRIPOS>ATOM
      1 C         142.5303  139.0639  162.0814 C.3     1  UNL1        0.0758
      2 C         143.7365  139.5232  161.3172 C.3     1  UNL1        0.0370
      3 C         143.7713  139.3950  159.8231 C.3     1  UNL1        0.0741
      4 N         142.6000  138.8074  159.0932 N.3     1  UNL1       -0.2688
      5 C         141.3937  138.3481  159.8575 C.3     1  UNL1        0.0741
      6 C         141.3589  138.4763  161.3516 C.3     1  UNL1        0.0370
      7 C         141.4998  140.7553  170.1948 C.3     1  UNL1        0.0897
      8 N         141.5346  140.6270  168.7007 N.3     1  UNL1       -0.2683
      9 C         142.3911  139.5768  168.0579 C.3     1  UNL1        0.0940
     10 C         142.4259  139.4486  166.5638 C.3     1  UNL1        0.1125
     11 N         141.6042  140.3706  165.7125 N.am    1  UNL1       -0.2593
     12 C         141.6390  140.2423  164.2184 C.2     1  UNL1        0.3042
     13 O         140.8173  141.1643  163.3672 O.2     1  UNL1       -0.2526
     14 N         142.4955  139.1921  163.5755 N.am    1  UNL1       -0.2903
     15 C         140.7476  141.4208  166.3554 C.3     1  UNL1        0.1153
     16 C         140.7128  141.5490  167.8495 C.3     1  UNL1        0.0969
     17 H         143.0349  138.5870  164.1342 H       1  UNL1        0.1509
     18 C         139.9259  142.3429  165.5041 C.ar    1  UNL1       -0.0029
     19 C         140.4620  143.6917  165.1259 C.ar    1  UNL1       -0.0026
     20 C         139.6403  144.6138  164.2747 C.ar    1  UNL1       -0.0003
     21 C         138.2823  144.1869  163.8017 C.ar    1  UNL1       -0.0000
     22 C         137.7461  142.8380  164.1800 C.ar    1  UNL1       -0.0003
     23 C         138.5679  141.9160  165.0312 C.ar    1  UNL1       -0.0026
     24 C         142.6348  138.6792  157.5991 C.3     1  UNL1        0.1007
     25 C         143.0334  137.3786  156.9671 C.ar    1  UNL1        0.0129
     26 C         143.5221  137.1949  155.5608 C.ar    1  UNL1        0.0176
     27 C         143.8041  135.7361  155.3549 C.ar    1  UNL1        0.0799
     28 N         143.4897  135.0182  156.6340 N.ar    1  UNL1       -0.3038
     29 C         143.0134  136.0334  157.6303 C.ar    1  UNL1        0.0772
     30 C         143.6275  133.5440  156.8744 C.ar    1  UNL1        0.0640
     31 C         144.7338  133.0263  157.7449 C.ar    1  UNL1        0.0175
     32 C         144.8716  131.5521  157.9854 C.ar    1  UNL1        0.0053
     33 C         143.9030  130.5956  157.3553 C.ar    1  UNL1        0.0715
     34 C         142.7965  131.1134  156.4847 C.ar    1  UNL1        0.0053
     35 C         142.6588  132.5876  156.2444 C.ar    1  UNL1        0.0175
     36 C         144.0407  129.1215  157.5957 C.3     1  UNL1        0.4186
     37 F         144.1785  127.6474  157.8362 F       1  UNL1       -0.1659
     38 F         142.8630  128.8658  156.7028 F       1  UNL1       -0.1659
     39 F         145.2185  129.3773  158.4887 F       1  UNL1       -0.1659
@<TRIPOS>BOND
     1     7     8    1
     2     8     9    1
     3     9    10    1
     4    10    11    1
     5    11    12   am
     6    12    13    2
     7    12    14   am
     8    14     1    1
     9     1     2    1
    10     2     3    1
    11     3     4    1
    12     4    24    1
    13    24    25    1
    14    25    26   ar
    15    26    27   ar
    16    27    28   ar
    17    28    30    1
    18    30    31   ar
    19    31    32   ar
    20    32    33   ar
    21    33    36    1
    22    36    37    1
    23    36    38    1
    24    36    39    1
    25    33    34   ar
    26    34    35   ar
    27    28    29   ar
    28     4     5    1
    29     5     6    1
    30    11    15    1
    31    15    18    1
    32    18    19   ar
    33    19    20   ar
    34    20    21   ar
    35    21    22   ar
    36    22    23   ar
    37    15    16    1
    38    16     8    1
    39     6     1    1
    40    23    18   ar
    41    29    25   ar
    42    35    30   ar
    43    14    17    1
@<TRIPOS>MOLECULE
*****
 39 43 0 0 0
SMALL
GASTEIGER

@<TRIPOS>ATOM
      1 C         139.1126  140.8148  161.7124 C.3     1  UNL1        0.0758
      2 C         138.9342  142.1981  161.1603 C.3     1  UNL1        0.0370
      3 C         138.8642  142.4104  159.6771 C.3     1  UNL1        0.0741
      4 N         138.9725  141.2394  158.7459 N.3     1  UNL1       -0.2688
      5 C         139.1508  139.8561  159.2980 C.3     1  UNL1        0.0741
      6 C         139.2209  139.6438  160.7812 C.3     1  UNL1        0.0370
      7 C         140.7765  139.8745  169.8424 C.3     1  UNL1        0.0897
      8 N         140.7064  140.0868  168.3592 N.3     1  UNL1       -0.2683
      9 C         139.3927  139.9657  167.6454 C.3     1  UNL1        0.0940
     10 C         139.3227  140.1780  166.1622 C.3     1  UNL1        0.1125
     11 N         140.5663  140.5114  165.3927 N.am    1  UNL1       -0.2593
     12 C         140.4963  140.7237  163.9094 C.2     1  UNL1        0.3042
     13 O         141.7399  141.0572  163.1400 O.2     1  UNL1       -0.2526
     14 N         139.1826  140.6025  163.1957 N.am    1  UNL1       -0.2903
     15 C         141.8800  140.6326  166.1065 C.3     1  UNL1        0.1153
     16 C         141.9500  140.4203  167.5897 C.3     1  UNL1        0.0969
     17 H         138.3663  140.3837  163.7007 H       1  UNL1        0.1509
     18 C         143.1237  140.9661  165.3370 C.ar    1  UNL1       -0.0029
     19 C         143.5445  142.3968  165.1752 C.ar    1  UNL1       -0.0026
     20 C         144.7882  142.7303  164.4057 C.ar    1  UNL1       -0.0003
     21 C         145.6111  141.6331  163.7981 C.ar    1  UNL1       -0.0000
     22 C         145.1902  140.2024  163.9600 C.ar    1  UNL1       -0.0003
     23 C         143.9466  139.8690  164.7294 C.ar    1  UNL1       -0.0026
     24 C         138.9024  141.4517  157.2627 C.3     1  UNL1        0.1007
     25 C         137.5870  141.3407  156.5504 C.ar    1  UNL1        0.0129
     26 C         137.2946  141.8188  155.1590 C.ar    1  UNL1        0.0176
     27 C         135.8600  141.5056  154.8531 C.ar    1  UNL1        0.0799
     28 N         135.2656  140.8340  156.0556 N.ar    1  UNL1       -0.3038
     29 C         136.3330  140.7321  157.1045 C.ar    1  UNL1        0.0772
     30 C         133.8521  140.3494  156.1861 C.ar    1  UNL1        0.0640
     31 C         133.5774  138.9681  156.7023 C.ar    1  UNL1        0.0175
     32 C         132.1638  138.4835  156.8329 C.ar    1  UNL1        0.0053
     33 C         131.0249  139.3802  156.4472 C.ar    1  UNL1        0.0715
     34 C         131.2995  140.7616  155.9309 C.ar    1  UNL1        0.0053
     35 C         132.7131  141.2461  155.8004 C.ar    1  UNL1        0.0175
     36 C         129.6115  138.8956  156.5777 C.3     1  UNL1        0.4186
     37 F         128.1979  138.4110  156.7082 F       1  UNL1       -0.1659
     38 F         129.1730  140.2776  156.9619 F       1  UNL1       -0.1659
     39 F         130.0498  137.5135  156.1935 F       1  UNL1       -0.1659
@<TRIPOS>BOND
     1     7     8    1
     2     8     9    1
     3     9    10    1
     4    10    11    1
     5    11    12   am
     6    12    13    2
     7    12    14   am
     8    14     1    1
     9     1     2    1
    10     2     3    1
    11     3     4    1
    12     4    24    1
    13    24    25    1
    14    25    26   ar
    15    26    27   ar
    16    27    28   ar
    17    28    30    1
    18    30    31   ar
    19    31    32   ar
    20    32    33   ar
    21    33    36    1
    22    36    37    1
    23    36    38    1
    24    36    39    1
    25    33    34   ar
    26    34    35   ar
    27    28    29   ar
    28     4     5    1
    29     5     6    1
    30    11    15    1
    31    15    18    1
    32    18    19   ar
    33    19    20   ar
    34    20    21   ar
    35    21    22   ar
    36    22    23   ar
    37    15    16    1
    38    16     8    1
    39     6     1    1
    40    23    18   ar
    41    29    25   ar
    42    35    30   ar
    43    14    17    1
@<TRIPOS>MOLECULE
*****
 39 43 0 0 0
SMALL
GASTEIGER

@<TRIPOS>ATOM
      1 C         140.8307  143.4304  162.3237 C.3     1  UNL1        0.0758
      2 C         142.1956  143.3629  161.7052 C.3     1  UNL1        0.0370
      3 C         142.3484  143.4383  160.2149 C.3     1  UNL1        0.0741
      4 N         141.1362  143.5812  159.3431 N.3     1  UNL1       -0.2688
      5 C         139.7712  143.6486  159.9615 C.3     1  UNL1        0.0741
      6 C         139.6185  143.5732  161.4518 C.3     1  UNL1        0.0370
      7 C         140.0250  141.7186  170.4582 C.3     1  UNL1        0.0897
      8 N         140.1777  141.7940  168.9679 N.3     1  UNL1       -0.2683
      9 C         140.2198  143.1288  168.2848 C.3     1  UNL1        0.0940
     10 C         140.3725  143.2042  166.7945 C.3     1  UNL1        0.1125
     11 N         140.4832  141.9448  165.9873 N.am    1  UNL1       -0.2593
     12 C         140.6359  142.0202  164.4970 C.2     1  UNL1        0.3042
     13 O         140.7465  140.7608  163.6897 O.2     1  UNL1       -0.2526
     14 N         140.6780  143.3550  163.8140 N.am    1  UNL1       -0.2903
     15 C         140.4410  140.6101  166.6703 C.3     1  UNL1        0.1153
     16 C         140.2883  140.5347  168.1606 C.3     1  UNL1        0.0969
     17 H         140.6054  144.1816  164.3438 H       1  UNL1        0.1509
     18 C         140.5516  139.3506  165.8631 C.ar    1  UNL1       -0.0029
     19 C         139.3116  138.6510  165.3910 C.ar    1  UNL1       -0.0026
     20 C         139.4222  137.3915  164.5837 C.ar    1  UNL1       -0.0003
     21 C         140.7729  136.8317  164.2486 C.ar    1  UNL1       -0.0000
     22 C         142.0130  137.5314  164.7207 C.ar    1  UNL1       -0.0003
     23 C         141.9023  138.7908  165.5279 C.ar    1  UNL1       -0.0026
     24 C         141.2889  143.6566  157.8528 C.3     1  UNL1        0.1007
     25 C         140.4208  144.5845  157.0558 C.ar    1  UNL1        0.0129
     26 C         139.2581  144.1842  156.1968 C.ar    1  UNL1        0.0176
     27 C         138.6816  145.4280  155.5881 C.ar    1  UNL1        0.0799
     28 N         139.4879  146.5971  156.0710 N.ar    1  UNL1       -0.3038
     29 C         140.5628  146.0757  156.9781 C.ar    1  UNL1        0.0772
     30 C         139.2595  148.0350  155.7101 C.ar    1  UNL1        0.0640
     31 C         139.7979  148.5791  154.4201 C.ar    1  UNL1        0.0175
     32 C         139.5694  150.0171  154.0592 C.ar    1  UNL1        0.0053
     33 C         138.8027  150.9109  154.9883 C.ar    1  UNL1        0.0715
     34 C         138.2643  150.3667  156.2784 C.ar    1  UNL1        0.0053
     35 C         138.4927  148.9288  156.6392 C.ar    1  UNL1        0.0175
     36 C         138.5743  152.3487  154.6274 C.3     1  UNL1        0.4186
     37 F         138.3459  153.7866  154.2665 F       1  UNL1       -0.1659
     38 F         138.5113  151.9746  153.1763 F       1  UNL1       -0.1659
     39 F         138.6373  152.7229  156.0786 F       1  UNL1       -0.1659
@<TRIPOS>BOND
     1     7     8    1
     2     8     9    1
     3     9    10    1
     4    10    11    1
     5    11    12   am
     6    12    13    2
     7    12    14   am
     8    14     1    1
     9     1     2    1
    10     2     3    1
    11     3     4    1
    12     4    24    1
    13    24    25    1
    14    25    26   ar
    15    26    27   ar
    16    27    28   ar
    17    28    30    1
    18    30    31   ar
    19    31    32   ar
    20    32    33   ar
    21    33    36    1
    22    36    37    1
    23    36    38    1
    24    36    39    1
    25    33    34   ar
    26    34    35   ar
    27    28    29   ar
    28     4     5    1
    29     5     6    1
    30    11    15    1
    31    15    18    1
    32    18    19   ar
    33    19    20   ar
    34    20    21   ar
    35    21    22   ar
    36    22    23   ar
    37    15    16    1
    38    16     8    1
    39     6     1    1
    40    23    18   ar
    41    29    25   ar
    42    35    30   ar
    43    14    17    1
@<TRIPOS>MOLECULE
*****
 39 43 0 0 0
SMALL
GASTEIGER

@<TRIPOS>ATOM
      1 C         143.3313  142.8410  162.4939 C.3     1  UNL1        0.0758
      2 C         144.5135  142.3343  161.7223 C.3     1  UNL1        0.0370
      3 C         144.5529  142.4789  160.2298 C.3     1  UNL1        0.0741
      4 N         143.4100  143.1302  159.5089 N.3     1  UNL1       -0.2688
      5 C         142.2277  143.6369  160.2806 C.3     1  UNL1        0.0741
      6 C         142.1883  143.4924  161.7731 C.3     1  UNL1        0.0370
      7 C         142.3901  140.9747  170.5798 C.3     1  UNL1        0.0897
      8 N         142.4295  141.1193  169.0873 N.3     1  UNL1       -0.2683
      9 C         143.1738  142.2627  168.4639 C.3     1  UNL1        0.0940
     10 C         143.2132  142.4073  166.9714 C.3     1  UNL1        0.1125
     11 N         142.5083  141.4084  166.1023 N.am    1  UNL1       -0.2593
     12 C         142.5477  141.5530  164.6098 C.2     1  UNL1        0.3042
     13 O         141.8428  140.5542  163.7407 O.2     1  UNL1       -0.2526
     14 N         143.2919  142.6964  163.9864 N.am    1  UNL1       -0.2903
     15 C         141.7640  140.2650  166.7257 C.3     1  UNL1        0.1153
     16 C         141.7247  140.1204  168.2182 C.3     1  UNL1        0.0969
     17 H         143.7546  143.3520  164.5569 H       1  UNL1        0.1509
     18 C         141.0591  139.2661  165.8565 C.ar    1  UNL1       -0.0029
     19 C         141.8198  138.1151  165.2679 C.ar    1  UNL1       -0.0026
     20 C         141.1149  137.1162  164.3988 C.ar    1  UNL1       -0.0003
     21 C         139.6492  137.2684  164.1183 C.ar    1  UNL1       -0.0000
     22 C         138.8885  138.4194  164.7070 C.ar    1  UNL1       -0.0003
     23 C         139.5934  139.4182  165.5761 C.ar    1  UNL1       -0.0026
     24 C         143.4494  143.2748  158.0165 C.3     1  UNL1        0.1007
     25 C         143.6860  142.0717  157.1524 C.ar    1  UNL1        0.0129
     26 C         144.5185  142.0319  155.9052 C.ar    1  UNL1        0.0176
     27 C         144.4787  140.6328  155.3658 C.ar    1  UNL1        0.0799
     28 N         143.6215  139.8080  156.2796 N.ar    1  UNL1       -0.3038
     29 C         143.1317  140.6973  157.3838 C.ar    1  UNL1        0.0772
     30 C         143.3091  138.3498  156.1177 C.ar    1  UNL1        0.0640
     31 C         144.3373  137.4220  155.5415 C.ar    1  UNL1        0.0175
     32 C         144.0249  135.9638  155.3796 C.ar    1  UNL1        0.0053
     33 C         142.6843  135.4335  155.7938 C.ar    1  UNL1        0.0715
     34 C         141.6560  136.3613  156.3699 C.ar    1  UNL1        0.0053
     35 C         141.9685  137.8195  156.5318 C.ar    1  UNL1        0.0175
     36 C         142.3719  133.9754  155.6318 C.3     1  UNL1        0.4186
     37 F         142.0595  132.5173  155.4699 F       1  UNL1       -0.1659
     38 F         143.8179  133.6414  155.8492 F       1  UNL1       -0.1659
     39 F         140.9258  134.3094  155.4145 F       1  UNL1       -0.1659
@<TRIPOS>BOND
     1     7     8    1
     2     8     9    1
     3     9    10    1
     4    10    11    1
     5    11    12   am
     6    12    13    2
     7    12    14   am
     8    14     1    1
     9     1     2    1
    10     2     3    1
    11     3     4    1
    12     4    24    1
    13    24    25    1
    14    25    26   ar
    15    26    27   ar
    16    27    28   ar
    17    28    30    1
    18    30    31   ar
    19    31    32   ar
    20    32    33   ar
    21    33    36    1
    22    36    37    1
    23    36    38    1
    24    36    39    1
    25    33    34   ar
    26    34    35   ar
    27    28    29   ar
    28     4     5    1
    29     5     6    1
    30    11    15    1
    31    15    18    1
    32    18    19   ar
    33    19    20   ar
    34    20    21   ar
    35    21    22   ar
    36    22    23   ar
    37    15    16    1
    38    16     8    1
    39     6     1    1
    40    23    18   ar
    41    29    25   ar
    42    35    30   ar
    43    14    17    1
@<TRIPOS>MOLECULE
*****
 39 43 0 0 0
SMALL
GASTEIGER

@<TRIPOS>ATOM
      1 C         142.4246  141.7526  160.1970 C.3     1  UNL1        0.0758
      2 C         143.2954  142.8628  159.6878 C.3     1  UNL1        0.0370
      3 C         143.0608  143.4331  158.3205 C.3     1  UNL1        0.0741
      4 N         141.9553  142.8933  157.4623 N.3     1  UNL1       -0.2688
      5 C         141.0845  141.7831  157.9714 C.3     1  UNL1        0.0741
      6 C         141.3191  141.2128  159.3387 C.3     1  UNL1        0.0370
      7 C         142.7064  139.2949  168.1738 C.3     1  UNL1        0.0897
      8 N         142.4717  139.8653  166.8065 N.3     1  UNL1       -0.2683
      9 C         143.3632  139.4712  165.6663 C.3     1  UNL1        0.0940
     10 C         143.1286  140.0416  164.2990 C.3     1  UNL1        0.1125
     11 N         142.0024  141.0060  164.0718 N.am    1  UNL1       -0.2593
     12 C         141.7678  141.5763  162.7044 C.2     1  UNL1        0.3042
     13 O         140.6416  142.5407  162.4772 O.2     1  UNL1       -0.2526
     14 N         142.6593  141.1823  161.5643 N.am    1  UNL1       -0.2903
     15 C         141.1109  141.4000  165.2119 C.3     1  UNL1        0.1153
     16 C         141.3456  140.8297  166.5792 C.3     1  UNL1        0.0969
     17 H         143.3984  140.5493  161.7134 H       1  UNL1        0.1509
     18 C         139.9847  142.3645  164.9847 C.ar    1  UNL1       -0.0029
     19 C         140.2075  143.8357  165.1739 C.ar    1  UNL1       -0.0026
     20 C         139.0813  144.8001  164.9467 C.ar    1  UNL1       -0.0003
     21 C         137.7323  144.2933  164.5303 C.ar    1  UNL1       -0.0000
     22 C         137.5096  142.8220  164.3411 C.ar    1  UNL1       -0.0003
     23 C         138.6358  141.8576  164.5683 C.ar    1  UNL1       -0.0026
     24 C         141.7207  143.4637  156.0949 C.3     1  UNL1        0.1007
     25 C         140.6523  144.4955  155.8859 C.ar    1  UNL1        0.0129
     26 C         139.1761  144.2363  155.8246 C.ar    1  UNL1        0.0176
     27 C         138.4839  145.5483  155.6023 C.ar    1  UNL1        0.0799
     28 N         139.5323  146.6185  155.5262 N.ar    1  UNL1       -0.3038
     29 C         140.8724  145.9677  155.7015 C.ar    1  UNL1        0.0772
     30 C         139.2842  148.0823  155.3124 C.ar    1  UNL1        0.0640
     31 C         139.8490  148.7702  154.1050 C.ar    1  UNL1        0.0175
     32 C         139.6009  150.2340  153.8912 C.ar    1  UNL1        0.0053
     33 C         138.7879  151.0099  154.8847 C.ar    1  UNL1        0.0715
     34 C         138.2230  150.3220  156.0921 C.ar    1  UNL1        0.0053
     35 C         138.4712  148.8582  156.3059 C.ar    1  UNL1        0.0175
     36 C         138.5398  152.4736  154.6709 C.3     1  UNL1        0.4186
     37 F         138.2916  153.9374  154.4570 F       1  UNL1       -0.1659
     38 F         138.8311  152.7346  156.1189 F       1  UNL1       -0.1659
     39 F         138.2484  152.2127  153.2228 F       1  UNL1       -0.1659
@<TRIPOS>BOND
     1     7     8    1
     2     8     9    1
     3     9    10    1
     4    10    11    1
     5    11    12   am
     6    12    13    2
     7    12    14   am
     8    14     1    1
     9     1     2    1
    10     2     3    1
    11     3     4    1
    12     4    24    1
    13    24    25    1
    14    25    26   ar
    15    26    27   ar
    16    27    28   ar
    17    28    30    1
    18    30    31   ar
    19    31    32   ar
    20    32    33   ar
    21    33    36    1
    22    36    37    1
    23    36    38    1
    24    36    39    1
    25    33    34   ar
    26    34    35   ar
    27    28    29   ar
    28     4     5    1
    29     5     6    1
    30    11    15    1
    31    15    18    1
    32    18    19   ar
    33    19    20   ar
    34    20    21   ar
    35    21    22   ar
    36    22    23   ar
    37    15    16    1
    38    16     8    1
    39     6     1    1
    40    23    18   ar
    41    29    25   ar
    42    35    30   ar
    43    14    17    1
@<TRIPOS>MOLECULE
*****
 39 43 0 0 0
SMALL
GASTEIGER

@<TRIPOS>ATOM
      1 C         139.4633  139.7918  159.3255 C.3     1  UNL1        0.0758
      2 C         138.4241  139.3702  160.3215 C.3     1  UNL1        0.0370
      3 C         137.8447  140.3755  161.2721 C.3     1  UNL1        0.0741
      4 N         138.3044  141.8026  161.2265 N.3     1  UNL1       -0.2688
      5 C         139.3437  142.2243  160.2304 C.3     1  UNL1        0.0741
      6 C         139.9231  141.2190  159.2799 C.3     1  UNL1        0.0370
      7 C         141.8123  134.6452  153.1818 C.3     1  UNL1        0.0897
      8 N         141.2329  135.6506  154.1323 N.3     1  UNL1       -0.2683
      9 C         141.7810  135.7704  155.5234 C.3     1  UNL1        0.0940
     10 C         141.2016  136.7757  156.4739 C.3     1  UNL1        0.1125
     11 N         140.0740  137.6613  156.0334 N.am    1  UNL1       -0.2593
     12 C         139.4945  138.6667  156.9839 C.2     1  UNL1        0.3042
     13 O         138.3669  139.5523  156.5433 O.2     1  UNL1       -0.2526
     14 N         140.0427  138.7865  158.3749 N.am    1  UNL1       -0.2903
     15 C         139.5258  137.5416  154.6423 C.3     1  UNL1        0.1153
     16 C         140.1052  136.5362  153.6918 C.3     1  UNL1        0.0969
     17 H         140.7828  138.2052  158.6641 H       1  UNL1        0.1509
     18 C         138.3981  138.4272  154.2017 C.ar    1  UNL1       -0.0029
     19 C         136.9777  138.0018  154.4284 C.ar    1  UNL1       -0.0026
     20 C         135.8501  138.8874  153.9878 C.ar    1  UNL1       -0.0003
     21 C         136.1429  140.1985  153.3205 C.ar    1  UNL1       -0.0000
     22 C         137.5633  140.6239  153.0937 C.ar    1  UNL1       -0.0003
     23 C         138.6909  139.7383  153.5343 C.ar    1  UNL1       -0.0026
     24 C         137.7250  142.8079  162.1770 C.3     1  UNL1        0.1007
     25 C         138.3918  143.0643  163.4960 C.ar    1  UNL1        0.0129
     26 C         138.4572  144.3820  164.2096 C.ar    1  UNL1        0.0176
     27 C         139.2161  144.1800  165.4875 C.ar    1  UNL1        0.0799
     28 N         139.6197  142.7373  165.5638 N.ar    1  UNL1       -0.3038
     29 C         139.1103  142.0478  164.3329 C.ar    1  UNL1        0.0772
     30 C         140.3965  142.0967  166.6757 C.ar    1  UNL1        0.0640
     31 C         140.8445  140.6705  166.5527 C.ar    1  UNL1        0.0175
     32 C         141.6212  140.0298  167.6646 C.ar    1  UNL1        0.0053
     33 C         141.9499  140.8154  168.8995 C.ar    1  UNL1        0.0715
     34 C         141.5019  142.2417  169.0224 C.ar    1  UNL1        0.0053
     35 C         140.7252  142.8823  167.9105 C.ar    1  UNL1        0.0175
     36 C         142.7266  140.1748  170.0113 C.3     1  UNL1        0.4186
     37 F         143.5034  139.5342  171.1232 F       1  UNL1       -0.1659
     38 F         143.7224  141.2954  169.9615 F       1  UNL1       -0.1659
     39 F         141.7308  139.0541  170.0612 F       1  UNL1       -0.1659
@<TRIPOS>BOND
     1     7     8    1
     2     8     9    1
     3     9    10    1
     4    10    11    1
     5    11    12   am
     6    12    13    2
     7    12    14   am
     8    14     1    1
     9     1     2    1
    10     2     3    1
    11     3     4    1
    12     4    24    1
    13    24    25    1
    14    25    26   ar
    15    26    27   ar
    16    27    28   ar
    17    28    30    1
    18    30    31   ar
    19    31    32   ar
    20    32    33   ar
    21    33    36    1
    22    36    37    1
    23    36    38    1
    24    36    39    1
    25    33    34   ar
    26    34    35   ar
    27    28    29   ar
    28     4     5    1
    29     5     6    1
    30    11    15    1
    31    15    18    1
    32    18    19   ar
    33    19    20   ar
    34    20    21   ar
    35    21    22   ar
    36    22    23   ar
    37    15    16    1
    38    16     8    1
    39     6     1    1
    40    23    18   ar
    41    29    25   ar
    42    35    30   ar
    43    14    17    1
@<TRIPOS>MOLECULE
*****
 39 43 0 0 0
SMALL
GASTEIGER

@<TRIPOS>ATOM
      1 C         142.5410  138.7401  159.3885 C.3     1  UNL1        0.0758
      2 C         143.5707  139.8289  159.4521 C.3     1  UNL1        0.0370
      3 C         143.1846  141.1999  159.9224 C.3     1  UNL1        0.0741
      4 N         141.7686  141.4821  160.3291 N.3     1  UNL1       -0.2688
      5 C         140.7388  140.3933  160.2655 C.3     1  UNL1        0.0741
      6 C         141.1250  139.0223  159.7952 C.3     1  UNL1        0.0370
      7 C         144.1235  131.4433  155.6466 C.3     1  UNL1        0.0897
      8 N         143.7373  132.8143  156.1169 N.3     1  UNL1       -0.2683
      9 C         144.0857  133.2560  157.5074 C.3     1  UNL1        0.0940
     10 C         143.6995  134.6270  157.9777 C.3     1  UNL1        0.1125
     11 N         142.9650  135.5563  157.0575 N.am    1  UNL1       -0.2593
     12 C         142.5788  136.9274  157.5278 C.2     1  UNL1        0.3042
     13 O         141.8442  137.8567  156.6076 O.2     1  UNL1       -0.2526
     14 N         142.9272  137.3691  158.9182 N.am    1  UNL1       -0.2903
     15 C         142.6166  135.1146  155.6670 C.3     1  UNL1        0.1153
     16 C         143.0027  133.7436  155.1967 C.3     1  UNL1        0.0969
     17 H         143.4093  136.7591  159.5222 H       1  UNL1        0.1509
     18 C         141.8820  136.0439  154.7467 C.ar    1  UNL1       -0.0029
     19 C         140.3821  136.0533  154.7309 C.ar    1  UNL1       -0.0026
     20 C         139.6476  136.9826  153.8106 C.ar    1  UNL1       -0.0003
     21 C         140.4129  137.9025  152.9062 C.ar    1  UNL1       -0.0000
     22 C         141.9129  137.8931  152.9221 C.ar    1  UNL1       -0.0003
     23 C         142.6474  136.9638  153.8423 C.ar    1  UNL1       -0.0026
     24 C         141.3825  142.8532  160.7994 C.3     1  UNL1        0.1007
     25 C         140.8380  143.0455  162.1838 C.ar    1  UNL1        0.0129
     26 C         140.0751  144.2408  162.6730 C.ar    1  UNL1        0.0176
     27 C         139.7265  144.0103  164.1136 C.ar    1  UNL1        0.0799
     28 N         140.2740  142.6726  164.5147 N.ar    1  UNL1       -0.3038
     29 C         140.9609  142.0764  163.3220 C.ar    1  UNL1        0.0772
     30 C         140.1553  142.0419  165.8705 C.ar    1  UNL1        0.0640
     31 C         140.5031  142.8311  167.0978 C.ar    1  UNL1        0.0175
     32 C         140.3844  142.2004  168.4536 C.ar    1  UNL1        0.0053
     33 C         139.9179  140.7806  168.5821 C.ar    1  UNL1        0.0715
     34 C         139.5701  139.9914  167.3548 C.ar    1  UNL1        0.0053
     35 C         139.6888  140.6221  165.9990 C.ar    1  UNL1        0.0175
     36 C         139.7993  140.1500  169.9378 C.3     1  UNL1        0.4186
     37 F         139.6806  139.5193  171.2936 F       1  UNL1       -0.1659
     38 F         138.5301  140.9113  170.1810 F       1  UNL1       -0.1659
     39 F         141.0686  139.3885  169.6947 F       1  UNL1       -0.1659
@<TRIPOS>BOND
     1     7     8    1
     2     8     9    1
     3     9    10    1
     4    10    11    1
     5    11    12   am
     6    12    13    2
     7    12    14   am
     8    14     1    1
     9     1     2    1
    10     2     3    1
    11     3     4    1
    12     4    24    1
    13    24    25    1
    14    25    26   ar
    15    26    27   ar
    16    27    28   ar
    17    28    30    1
    18    30    31   ar
    19    31    32   ar
    20    32    33   ar
    21    33    36    1
    22    36    37    1
    23    36    38    1
    24    36    39    1
    25    33    34   ar
    26    34    35   ar
    27    28    29   ar
    28     4     5    1
    29     5     6    1
    30    11    15    1
    31    15    18    1
    32    18    19   ar
    33    19    20   ar
    34    20    21   ar
    35    21    22   ar
    36    22    23   ar
    37    15    16    1
    38    16     8    1
    39     6     1    1
    40    23    18   ar
    41    29    25   ar
    42    35    30   ar
    43    14    17    1
