@<TRIPOS>MOLECULE
*****
 28 32 0 0 0
SMALL
GASTEIGER

@<TRIPOS>ATOM
      1 N         139.5776  139.1677  163.3566 N.pl3   1  UNL1       -0.3133
      2 C         139.4205  139.3490  164.8373 C.2     1  UNL1        0.2770
      3 N         140.3286  140.1420  165.7297 N.2     1  UNL1       -0.2203
      4 C         139.7972  140.0521  167.1295 C.3     1  UNL1        0.1540
      5 C         138.5606  139.2036  167.1022 C.3     1  UNL1        0.2350
      6 O         138.3278  138.7690  165.6855 O.2     1  UNL1       -0.4478
      7 C         141.0434  140.8771  167.0019 C.ar    1  UNL1        0.0355
      8 C         141.6899  141.0567  165.6603 C.ar    1  UNL1        0.0007
      9 C         142.9361  141.8817  165.5327 C.ar    1  UNL1        0.0029
     10 C         143.5359  142.5270  166.7467 C.ar    1  UNL1        0.0032
     11 C         142.8894  142.3474  168.0882 C.ar    1  UNL1        0.0366
     12 C         141.6432  141.5225  168.2159 C.ar    1  UNL1        0.1364
     13 O         140.9968  141.3429  169.5574 O.3     1  UNL1       -0.4756
     14 C         139.7505  140.5179  169.6850 C.3     1  UNL1        0.2078
     15 C         139.1507  139.8725  168.4711 C.3     1  UNL1        0.0771
     16 C         139.4984  140.1027  168.4355 C.3     1  UNL1        0.0726
     17 C         139.1330  139.8608  168.4729 C.3     1  UNL1        0.2643
     18 F         136.5261  137.9324  167.6986 F       1  UNL1       -0.2043
     19 F         136.4880  138.3127  169.7852 F       1  UNL1       -0.2043
     20 C         139.4984  140.1027  168.4355 C.3     1  UNL1        0.0726
     21 H         140.3320  139.5906  162.8862 H       1  UNL1        0.1466
     22 H         138.9262  138.6259  162.8551 H       1  UNL1        0.1466
     23 C         143.5826  142.0612  164.1911 C.ar    1  UNL1        0.0384
     24 C         144.9542  141.5086  163.9395 C.ar    1  UNL1        0.1022
     25 N         145.6007  141.6882  162.5979 N.ar    1  UNL1       -0.2224
     26 C         144.8755  142.4204  161.5079 C.ar    1  UNL1        0.1989
     27 N         143.5039  142.9730  161.7596 N.ar    1  UNL1       -0.2224
     28 C         142.8574  142.7935  163.1012 C.ar    1  UNL1        0.1022
@<TRIPOS>BOND
     1     1     2    1
     2     2     3    2
     3     3     4    1
     4     4     5    1
     5     5     6    1
     6     4     7    1
     7     7     8   ar
     8     8     9   ar
     9     9    23    1
    10    23    24   ar
    11    24    25   ar
    12    25    26   ar
    13    26    27   ar
    14    27    28   ar
    15     9    10   ar
    16    10    11   ar
    17    11    12   ar
    18    12    13    1
    19    13    14    1
    20    14    15    1
    21    15    16    1
    22    16    17    1
    23    17    18    1
    24    17    19    1
    25    17    20    1
    26     6     2    1
    27    12     7   ar
    28    20    15    1
    29    15     4    1
    30    28    23   ar
    31     1    21    1
    32     1    22    1
@<TRIPOS>MOLECULE
*****
 28 32 0 0 0
SMALL
GASTEIGER

@<TRIPOS>ATOM
      1 N         144.1521  139.8634  162.7948 N.pl3   1  UNL1       -0.3133
      2 C         143.7526  139.6839  164.2294 C.2     1  UNL1        0.2770
      3 N         142.7888  140.5451  164.9906 N.2     1  UNL1       -0.2203
      4 C         142.6872  140.0051  166.3864 C.3     1  UNL1        0.1540
      5 C         143.5883  138.8102  166.4878 C.3     1  UNL1        0.2350
      6 O         144.2467  138.6117  165.1547 O.2     1  UNL1       -0.4478
      7 C         141.8328  141.2123  166.1355 C.ar    1  UNL1        0.0355
      8 C         141.8313  141.8623  164.7837 C.ar    1  UNL1        0.0007
      9 C         140.9770  143.0694  164.5329 C.ar    1  UNL1        0.0029
     10 C         140.1242  143.6265  165.6339 C.ar    1  UNL1        0.0032
     11 C         140.1257  142.9765  166.9857 C.ar    1  UNL1        0.0366
     12 C         140.9800  141.7694  167.2365 C.ar    1  UNL1        0.1364
     13 O         140.9815  141.1194  168.5884 O.3     1  UNL1       -0.4756
     14 C         141.8359  139.9123  168.8392 C.3     1  UNL1        0.2078
     15 C         142.6887  139.3551  167.7382 C.3     1  UNL1        0.0771
     16 C         142.4504  139.6919  167.6683 C.3     1  UNL1        0.0726
     17 C         142.7009  139.3380  167.7417 C.3     1  UNL1        0.2643
     18 F         144.8487  136.8324  167.2689 F       1  UNL1       -0.2043
     19 F         144.1535  136.7565  169.2717 F       1  UNL1       -0.2043
     20 C         142.4504  139.6919  167.6683 C.3     1  UNL1        0.0726
     21 H         143.7711  140.6015  162.2663 H       1  UNL1        0.1466
     22 H         144.7954  139.2432  162.3816 H       1  UNL1        0.1466
     23 C         140.9755  143.7194  163.1810 C.ar    1  UNL1        0.0384
     24 C         139.6988  144.2642  162.6121 C.ar    1  UNL1        0.1022
     25 N         139.6973  144.9142  161.2603 N.ar    1  UNL1       -0.2224
     26 C         140.9724  145.0194  160.4773 C.ar    1  UNL1        0.1989
     27 N         142.2491  144.4747  161.0462 N.ar    1  UNL1       -0.2224
     28 C         142.2506  143.8247  162.3980 C.ar    1  UNL1        0.1022
@<TRIPOS>BOND
     1     1     2    1
     2     2     3    2
     3     3     4    1
     4     4     5    1
     5     5     6    1
     6     4     7    1
     7     7     8   ar
     8     8     9   ar
     9     9    23    1
    10    23    24   ar
    11    24    25   ar
    12    25    26   ar
    13    26    27   ar
    14    27    28   ar
    15     9    10   ar
    16    10    11   ar
    17    11    12   ar
    18    12    13    1
    19    13    14    1
    20    14    15    1
    21    15    16    1
    22    16    17    1
    23    17    18    1
    24    17    19    1
    25    17    20    1
    26     6     2    1
    27    12     7   ar
    28    20    15    1
    29    15     4    1
    30    28    23   ar
    31     1    21    1
    32     1    22    1
@<TRIPOS>MOLECULE
*****
 28 32 0 0 0
SMALL
GASTEIGER

@<TRIPOS>ATOM
      1 N         137.4478  142.6705  164.2274 N.pl3   1  UNL1       -0.3133
      2 C         138.7432  143.1375  163.6325 C.2     1  UNL1        0.2770
      3 N         140.0901  143.0699  164.2892 N.2     1  UNL1       -0.2203
      4 C         141.0985  143.6447  163.3390 C.3     1  UNL1        0.1540
      5 C         140.3747  144.0675  162.0950 C.3     1  UNL1        0.2350
      6 O         138.9191  143.7540  162.2764 O.2     1  UNL1       -0.4478
      7 C         141.6828  143.1754  164.6383 C.ar    1  UNL1        0.0355
      8 C         140.7938  142.5768  165.6878 C.ar    1  UNL1        0.0007
      9 C         141.3781  142.1075  166.9871 C.ar    1  UNL1        0.0029
     10 C         142.8515  142.2368  167.2370 C.ar    1  UNL1        0.0032
     11 C         143.7405  142.8354  166.1876 C.ar    1  UNL1        0.0366
     12 C         143.1562  143.3047  164.8883 C.ar    1  UNL1        0.1364
     13 O         144.0452  143.9033  163.8389 O.3     1  UNL1       -0.4756
     14 C         143.4608  144.3726  162.5395 C.3     1  UNL1        0.2078
     15 C         141.9875  144.2433  162.2896 C.3     1  UNL1        0.0771
     16 C         142.1505  144.1124  162.6521 C.3     1  UNL1        0.0726
     17 C         141.9791  144.2500  162.2711 C.3     1  UNL1        0.2643
     18 F         139.7835  144.9418  159.8597 F       1  UNL1       -0.2043
     19 F         141.7124  145.5361  159.2068 F       1  UNL1       -0.2043
     20 C         142.1505  144.1124  162.6521 C.3     1  UNL1        0.0726
     21 H         137.4341  142.2769  165.1297 H       1  UNL1        0.1466
     22 H         136.6113  142.7575  163.7155 H       1  UNL1        0.1466
     23 C         140.4891  141.5089  168.0365 C.ar    1  UNL1        0.0384
     24 C         140.3079  142.2056  169.3525 C.ar    1  UNL1        0.1022
     25 N         139.4189  141.6070  170.4020 N.ar    1  UNL1       -0.2224
     26 C         138.7111  140.3117  170.1355 C.ar    1  UNL1        0.1989
     27 N         138.8923  139.6149  168.8194 N.ar    1  UNL1       -0.2224
     28 C         139.7813  140.2135  167.7700 C.ar    1  UNL1        0.1022
@<TRIPOS>BOND
     1     1     2    1
     2     2     3    2
     3     3     4    1
     4     4     5    1
     5     5     6    1
     6     4     7    1
     7     7     8   ar
     8     8     9   ar
     9     9    23    1
    10    23    24   ar
    11    24    25   ar
    12    25    26   ar
    13    26    27   ar
    14    27    28   ar
    15     9    10   ar
    16    10    11   ar
    17    11    12   ar
    18    12    13    1
    19    13    14    1
    20    14    15    1
    21    15    16    1
    22    16    17    1
    23    17    18    1
    24    17    19    1
    25    17    20    1
    26     6     2    1
    27    12     7   ar
    28    20    15    1
    29    15     4    1
    30    28    23   ar
    31     1    21    1
    32     1    22    1
@<TRIPOS>MOLECULE
*****
 28 32 0 0 0
SMALL
GASTEIGER

@<TRIPOS>ATOM
      1 N         143.8944  141.7576  165.1682 N.pl3   1  UNL1       -0.3133
      2 C         142.8177  141.4952  166.1790 C.2     1  UNL1        0.2770
      3 N         141.6774  140.5332  166.0231 N.2     1  UNL1       -0.2203
      4 C         140.8472  140.5921  167.2710 C.3     1  UNL1        0.1540
      5 C         141.4744  141.5905  168.1982 C.3     1  UNL1        0.2350
      6 O         142.6922  142.1486  167.5234 O.2     1  UNL1       -0.4478
      7 C         140.3359  139.6266  166.2431 C.ar    1  UNL1        0.0355
      8 C         141.0644  139.4603  164.9425 C.ar    1  UNL1        0.0007
      9 C         140.5532  138.4948  163.9146 C.ar    1  UNL1        0.0029
     10 C         139.3135  137.6956  164.1874 C.ar    1  UNL1        0.0032
     11 C         138.5850  137.8620  165.4880 C.ar    1  UNL1        0.0366
     12 C         139.0962  138.8274  166.5158 C.ar    1  UNL1        0.1364
     13 O         138.3677  138.9937  167.8164 O.3     1  UNL1       -0.4756
     14 C         138.8789  139.9592  168.8443 C.3     1  UNL1        0.2078
     15 C         140.1187  140.7584  168.5716 C.3     1  UNL1        0.0771
     16 C         139.9760  140.4890  168.2848 C.3     1  UNL1        0.0726
     17 C         140.1259  140.7721  168.5862 C.3     1  UNL1        0.2643
     18 F         142.0066  143.0648  170.1097 F       1  UNL1       -0.2043
     19 F         140.3995  142.5482  171.3944 F       1  UNL1       -0.2043
     20 C         139.9760  140.4890  168.2848 C.3     1  UNL1        0.0726
     21 H         143.8912  141.2763  164.3094 H       1  UNL1        0.1466
     22 H         144.6042  142.4112  165.3635 H       1  UNL1        0.1466
     23 C         141.2817  138.3284  162.6140 C.ar    1  UNL1        0.0384
     24 C         142.7520  138.0309  162.6106 C.ar    1  UNL1        0.1022
     25 N         143.4805  137.8646  161.3100 N.ar    1  UNL1       -0.2224
     26 C         142.7388  137.9958  160.0128 C.ar    1  UNL1        0.1989
     27 N         141.2685  138.2933  160.0162 N.ar    1  UNL1       -0.2224
     28 C         140.5400  138.4596  161.3168 C.ar    1  UNL1        0.1022
@<TRIPOS>BOND
     1     1     2    1
     2     2     3    2
     3     3     4    1
     4     4     5    1
     5     5     6    1
     6     4     7    1
     7     7     8   ar
     8     8     9   ar
     9     9    23    1
    10    23    24   ar
    11    24    25   ar
    12    25    26   ar
    13    26    27   ar
    14    27    28   ar
    15     9    10   ar
    16    10    11   ar
    17    11    12   ar
    18    12    13    1
    19    13    14    1
    20    14    15    1
    21    15    16    1
    22    16    17    1
    23    17    18    1
    24    17    19    1
    25    17    20    1
    26     6     2    1
    27    12     7   ar
    28    20    15    1
    29    15     4    1
    30    28    23   ar
    31     1    21    1
    32     1    22    1
@<TRIPOS>MOLECULE
*****
 28 32 0 0 0
SMALL
GASTEIGER

@<TRIPOS>ATOM
      1 N         142.6985  142.6421  165.2804 N.pl3   1  UNL1       -0.3133
      2 C         141.6087  141.7907  165.8613 C.2     1  UNL1        0.2770
      3 N         140.9256  140.6443  165.1763 N.2     1  UNL1       -0.2203
      4 C         139.9054  140.0813  166.1208 C.3     1  UNL1        0.1540
      5 C         139.9579  140.8797  167.3896 C.3     1  UNL1        0.2350
      6 O         141.0106  141.9362  167.2292 O.2     1  UNL1       -0.4478
      7 C         139.9670  139.3763  164.7983 C.ar    1  UNL1        0.0355
      8 C         140.9412  139.8293  163.7515 C.ar    1  UNL1        0.0007
      9 C         141.0029  139.1243  162.4290 C.ar    1  UNL1        0.0029
     10 C         140.0903  137.9663  162.1532 C.ar    1  UNL1        0.0032
     11 C         139.1161  137.5132  163.1999 C.ar    1  UNL1        0.0366
     12 C         139.0545  138.2182  164.5224 C.ar    1  UNL1        0.1364
     13 O         138.0803  137.7652  165.5691 O.3     1  UNL1       -0.4756
     14 C         138.0186  138.4702  166.8917 C.3     1  UNL1        0.2078
     15 C         138.9312  139.6283  167.1675 C.3     1  UNL1        0.0771
     16 C         138.9483  139.4316  166.7986 C.3     1  UNL1        0.0726
     17 C         138.9303  139.6383  167.1863 C.3     1  UNL1        0.2643
     18 F         139.5706  141.7816  169.6584 F       1  UNL1       -0.2043
     19 F         138.0301  140.4661  170.2878 F       1  UNL1       -0.2043
     20 C         138.9483  139.4316  166.7986 C.3     1  UNL1        0.0726
     21 H         143.0263  142.4677  164.3686 H       1  UNL1        0.1466
     22 H         143.0861  143.3753  165.8109 H       1  UNL1        0.1466
     23 C         141.9771  139.5773  161.3823 C.ar    1  UNL1        0.0384
     24 C         142.1964  141.0423  161.1456 C.ar    1  UNL1        0.1022
     25 N         143.1706  141.4953  160.0988 N.ar    1  UNL1       -0.2224
     26 C         143.9256  140.4835  159.2888 C.ar    1  UNL1        0.1989
     27 N         143.7063  139.0185  159.5254 N.ar    1  UNL1       -0.2224
     28 C         142.7321  138.5655  160.5722 C.ar    1  UNL1        0.1022
@<TRIPOS>BOND
     1     1     2    1
     2     2     3    2
     3     3     4    1
     4     4     5    1
     5     5     6    1
     6     4     7    1
     7     7     8   ar
     8     8     9   ar
     9     9    23    1
    10    23    24   ar
    11    24    25   ar
    12    25    26   ar
    13    26    27   ar
    14    27    28   ar
    15     9    10   ar
    16    10    11   ar
    17    11    12   ar
    18    12    13    1
    19    13    14    1
    20    14    15    1
    21    15    16    1
    22    16    17    1
    23    17    18    1
    24    17    19    1
    25    17    20    1
    26     6     2    1
    27    12     7   ar
    28    20    15    1
    29    15     4    1
    30    28    23   ar
    31     1    21    1
    32     1    22    1
@<TRIPOS>MOLECULE
*****
 28 32 0 0 0
SMALL
GASTEIGER

@<TRIPOS>ATOM
      1 N         144.7552  139.2068  164.8574 N.pl3   1  UNL1       -0.3133
      2 C         143.6164  138.9157  163.9255 C.2     1  UNL1        0.2770
      3 N         142.1589  138.9415  164.2794 N.2     1  UNL1       -0.2203
      4 C         141.3768  138.5895  163.0488 C.3     1  UNL1        0.1540
      5 C         142.3509  138.3461  161.9344 C.3     1  UNL1        0.2350
      6 O         143.7350  138.5477  162.4762 O.2     1  UNL1       -0.4478
      7 C         140.5271  138.8620  164.2545 C.ar    1  UNL1        0.0355
      8 C         141.1713  139.2269  165.5591 C.ar    1  UNL1        0.0007
      9 C         140.3216  139.4994  166.7648 C.ar    1  UNL1        0.0029
     10 C         138.8278  139.4069  166.6659 C.ar    1  UNL1        0.0032
     11 C         138.1836  139.0420  165.3614 C.ar    1  UNL1        0.0366
     12 C         139.0332  138.7695  164.1557 C.ar    1  UNL1        0.1364
     13 O         138.3890  138.4046  162.8512 O.3     1  UNL1       -0.4756
     14 C         139.2387  138.1321  161.6455 C.3     1  UNL1        0.2078
     15 C         140.7326  138.2245  161.7443 C.3     1  UNL1        0.0771
     16 C         140.4955  138.3005  162.0806 C.3     1  UNL1        0.0726
     17 C         140.7447  138.2207  161.7271 C.3     1  UNL1        0.2643
     18 F         143.4079  137.8332  159.7594 F       1  UNL1       -0.2043
     19 F         141.6622  137.4597  158.6136 F       1  UNL1       -0.2043
     20 C         140.4955  138.3005  162.0806 C.3     1  UNL1        0.0726
     21 H         144.5753  139.4407  165.7966 H       1  UNL1        0.1466
     22 H         145.6826  139.1640  164.5297 H       1  UNL1        0.1466
     23 C         140.9658  139.8643  168.0693 C.ar    1  UNL1        0.0384
     24 C         142.4601  139.8455  168.1991 C.ar    1  UNL1        0.1022
     25 N         143.1043  140.2105  169.5036 N.ar    1  UNL1       -0.2224
     26 C         142.2542  140.5942  170.6784 C.ar    1  UNL1        0.1989
     27 N         140.7599  140.6130  170.5487 N.ar    1  UNL1       -0.2224
     28 C         140.1157  140.2481  169.2441 C.ar    1  UNL1        0.1022
@<TRIPOS>BOND
     1     1     2    1
     2     2     3    2
     3     3     4    1
     4     4     5    1
     5     5     6    1
     6     4     7    1
     7     7     8   ar
     8     8     9   ar
     9     9    23    1
    10    23    24   ar
    11    24    25   ar
    12    25    26   ar
    13    26    27   ar
    14    27    28   ar
    15     9    10   ar
    16    10    11   ar
    17    11    12   ar
    18    12    13    1
    19    13    14    1
    20    14    15    1
    21    15    16    1
    22    16    17    1
    23    17    18    1
    24    17    19    1
    25    17    20    1
    26     6     2    1
    27    12     7   ar
    28    20    15    1
    29    15     4    1
    30    28    23   ar
    31     1    21    1
    32     1    22    1
@<TRIPOS>MOLECULE
*****
 28 32 0 0 0
SMALL
GASTEIGER

@<TRIPOS>ATOM
      1 N         137.3496  141.8419  164.4529 N.pl3   1  UNL1       -0.3133
      2 C         138.2491  140.9045  163.7031 C.2     1  UNL1        0.2770
      3 N         139.4802  140.2412  164.2455 N.2     1  UNL1       -0.2203
      4 C         140.0675  139.3926  163.1569 C.3     1  UNL1        0.1540
      5 C         139.1992  139.5315  161.9416 C.3     1  UNL1        0.2350
      6 O         138.0754  140.4660  162.2792 O.2     1  UNL1       -0.4478
      7 C         140.8369  139.3524  164.4438 C.ar    1  UNL1        0.0355
      8 C         140.3683  140.1522  165.6231 C.ar    1  UNL1        0.0007
      9 C         141.1378  140.1120  166.9101 C.ar    1  UNL1        0.0029
     10 C         142.3758  139.2720  167.0177 C.ar    1  UNL1        0.0032
     11 C         142.8444  138.4722  165.8385 C.ar    1  UNL1        0.0366
     12 C         142.0750  138.5124  164.5516 C.ar    1  UNL1        0.1364
     13 O         142.5436  137.7126  163.3723 O.3     1  UNL1       -0.4756
     14 C         141.7741  137.7528  162.0853 C.3     1  UNL1        0.2078
     15 C         140.5360  138.5928  161.9776 C.3     1  UNL1        0.0771
     16 C         140.7507  138.5816  162.3366 C.3     1  UNL1        0.0726
     17 C         140.5251  138.5934  161.9593 C.3     1  UNL1        0.2643
     18 F         138.2070  139.3475  159.6850 F       1  UNL1       -0.2043
     19 F         139.6005  138.0086  158.8100 F       1  UNL1       -0.2043
     20 C         140.7507  138.5816  162.3366 C.3     1  UNL1        0.0726
     21 H         137.5479  142.0705  165.3898 H       1  UNL1        0.1466
     22 H         136.5609  142.2285  164.0082 H       1  UNL1        0.1466
     23 C         140.6692  140.9118  168.0894 C.ar    1  UNL1        0.0384
     24 C         139.8496  140.2572  169.1617 C.ar    1  UNL1        0.1022
     25 N         139.3810  141.0570  170.3410 N.ar    1  UNL1       -0.2224
     26 C         139.7320  142.5114  170.4480 C.ar    1  UNL1        0.1989
     27 N         140.5517  143.1661  169.3757 N.ar    1  UNL1       -0.2224
     28 C         141.0202  142.3663  168.1964 C.ar    1  UNL1        0.1022
@<TRIPOS>BOND
     1     1     2    1
     2     2     3    2
     3     3     4    1
     4     4     5    1
     5     5     6    1
     6     4     7    1
     7     7     8   ar
     8     8     9   ar
     9     9    23    1
    10    23    24   ar
    11    24    25   ar
    12    25    26   ar
    13    26    27   ar
    14    27    28   ar
    15     9    10   ar
    16    10    11   ar
    17    11    12   ar
    18    12    13    1
    19    13    14    1
    20    14    15    1
    21    15    16    1
    22    16    17    1
    23    17    18    1
    24    17    19    1
    25    17    20    1
    26     6     2    1
    27    12     7   ar
    28    20    15    1
    29    15     4    1
    30    28    23   ar
    31     1    21    1
    32     1    22    1
@<TRIPOS>MOLECULE
*****
 28 32 0 0 0
SMALL
GASTEIGER

@<TRIPOS>ATOM
      1 N         142.9614  145.1506  163.8339 N.pl3   1  UNL1       -0.3133
      2 C         143.2939  143.8988  163.0773 C.2     1  UNL1        0.2770
      3 N         143.2874  142.5052  163.6322 N.2     1  UNL1       -0.2203
      4 C         143.6808  141.5659  162.5309 C.3     1  UNL1        0.1540
      5 C         143.9303  142.3789  161.2953 C.3     1  UNL1        0.2350
      6 O         143.6912  143.8207  161.6330 O.2     1  UNL1       -0.4478
      7 C         143.3978  140.8881  163.8388 C.ar    1  UNL1        0.0355
      8 C         142.9926  141.7010  165.0325 C.ar    1  UNL1        0.0007
      9 C         142.7096  141.0232  166.3404 C.ar    1  UNL1        0.0029
     10 C         142.8320  139.5327  166.4545 C.ar    1  UNL1        0.0032
     11 C         143.2372  138.7198  165.2608 C.ar    1  UNL1        0.0366
     12 C         143.5201  139.3975  163.9530 C.ar    1  UNL1        0.1364
     13 O         143.9254  138.5846  162.7593 O.3     1  UNL1       -0.4756
     14 C         144.2084  139.2624  161.4514 C.3     1  UNL1        0.2078
     15 C         144.0860  140.7530  161.3372 C.3     1  UNL1        0.0771
     16 C         144.0071  140.5639  161.7020 C.3     1  UNL1        0.0726
     17 C         144.0901  140.7627  161.3186 C.3     1  UNL1        0.2643
     18 F         144.4709  143.1311  159.0034 F       1  UNL1       -0.2043
     19 F         144.9017  141.2503  158.1219 F       1  UNL1       -0.2043
     20 C         144.0071  140.5639  161.7020 C.3     1  UNL1        0.0726
     21 H         142.7104  145.0992  164.7845 H       1  UNL1        0.1466
     22 H         142.9941  146.0235  163.3799 H       1  UNL1        0.1466
     23 C         142.3044  141.8361  167.5341 C.ar    1  UNL1        0.0384
     24 C         140.8888  142.3132  167.6712 C.ar    1  UNL1        0.1022
     25 N         140.4835  143.1260  168.8649 N.ar    1  UNL1       -0.2224
     26 C         141.4938  143.4619  169.9216 C.ar    1  UNL1        0.1989
     27 N         142.9094  142.9849  169.7845 N.ar    1  UNL1       -0.2224
     28 C         143.3146  142.1720  168.5908 C.ar    1  UNL1        0.1022
@<TRIPOS>BOND
     1     1     2    1
     2     2     3    2
     3     3     4    1
     4     4     5    1
     5     5     6    1
     6     4     7    1
     7     7     8   ar
     8     8     9   ar
     9     9    23    1
    10    23    24   ar
    11    24    25   ar
    12    25    26   ar
    13    26    27   ar
    14    27    28   ar
    15     9    10   ar
    16    10    11   ar
    17    11    12   ar
    18    12    13    1
    19    13    14    1
    20    14    15    1
    21    15    16    1
    22    16    17    1
    23    17    18    1
    24    17    19    1
    25    17    20    1
    26     6     2    1
    27    12     7   ar
    28    20    15    1
    29    15     4    1
    30    28    23   ar
    31     1    21    1
    32     1    22    1
@<TRIPOS>MOLECULE
*****
 28 32 0 0 0
SMALL
GASTEIGER

@<TRIPOS>ATOM
      1 N         142.0806  145.2276  164.0381 N.pl3   1  UNL1       -0.3133
      2 C         141.0930  144.3228  163.3628 C.2     1  UNL1        0.2770
      3 N         140.3980  143.1512  163.9906 N.2     1  UNL1       -0.2203
      4 C         139.5024  142.5351  162.9570 C.3     1  UNL1        0.1540
      5 C         139.6439  143.3260  161.6903 C.3     1  UNL1        0.2350
      6 O         140.6269  144.4308  161.9411 O.2     1  UNL1       -0.4478
      7 C         139.4649  141.8431  164.2873 C.ar    1  UNL1        0.0355
      8 C         140.3096  142.3479  165.4194 C.ar    1  UNL1        0.0007
      9 C         140.2721  141.6559  166.7497 C.ar    1  UNL1        0.0029
     10 C         139.3899  140.4591  166.9479 C.ar    1  UNL1        0.0032
     11 C         138.5452  139.9543  165.8158 C.ar    1  UNL1        0.0366
     12 C         138.5827  140.6463  164.4856 C.ar    1  UNL1        0.1364
     13 O         137.7380  140.1414  163.3535 O.3     1  UNL1       -0.4756
     14 C         137.7755  140.8334  162.0232 C.3     1  UNL1        0.2078
     15 C         138.6577  142.0302  161.8249 C.3     1  UNL1        0.0771
     16 C         138.6472  141.8372  162.1960 C.3     1  UNL1        0.0726
     17 C         138.6582  142.0401  161.8060 C.3     1  UNL1        0.2643
     18 F         139.4422  144.1929  159.3841 F       1  UNL1       -0.2043
     19 F         138.0322  142.8035  158.6216 F       1  UNL1       -0.2043
     20 C         138.6472  141.8372  162.1960 C.3     1  UNL1        0.0726
     21 H         142.3243  145.0749  164.9796 H       1  UNL1        0.1466
     22 H         142.4852  145.9740  163.5397 H       1  UNL1        0.1466
     23 C         141.1168  142.1608  167.8818 C.ar    1  UNL1        0.0384
     24 C         142.6085  142.0124  167.8287 C.ar    1  UNL1        0.1022
     25 N         143.4532  142.5173  168.9607 N.ar    1  UNL1       -0.2224
     26 C         142.8062  143.1704  170.1460 C.ar    1  UNL1        0.1989
     27 N         141.3144  143.3188  170.1991 N.ar    1  UNL1       -0.2224
     28 C         140.4698  142.8139  169.0670 C.ar    1  UNL1        0.1022
@<TRIPOS>BOND
     1     1     2    1
     2     2     3    2
     3     3     4    1
     4     4     5    1
     5     5     6    1
     6     4     7    1
     7     7     8   ar
     8     8     9   ar
     9     9    23    1
    10    23    24   ar
    11    24    25   ar
    12    25    26   ar
    13    26    27   ar
    14    27    28   ar
    15     9    10   ar
    16    10    11   ar
    17    11    12   ar
    18    12    13    1
    19    13    14    1
    20    14    15    1
    21    15    16    1
    22    16    17    1
    23    17    18    1
    24    17    19    1
    25    17    20    1
    26     6     2    1
    27    12     7   ar
    28    20    15    1
    29    15     4    1
    30    28    23   ar
    31     1    21    1
    32     1    22    1
