@<TRIPOS>MOLECULE
*****
 39 43 0 0 0
SMALL
GASTEIGER

@<TRIPOS>ATOM
      1 C         143.7983  141.5820  163.9189 C.3     1  UNL1        0.0080
      2 C         143.9771  140.0957  164.0131 C.3     1  UNL1        0.0177
      3 C         143.7155  139.2314  162.8154 C.3     1  UNL1        0.0721
      4 N         143.2752  139.8534  161.5234 N.3     1  UNL1       -0.2736
      5 C         143.0963  141.3397  161.4292 C.3     1  UNL1        0.0776
      6 C         143.3579  142.2041  162.6270 C.3     1  UNL1        0.0525
      7 C         143.0136  138.9891  160.3257 C.3     1  UNL1        0.0582
      8 C         143.0272  139.2018  158.8409 C.3     1  UNL1        0.0204
      9 C         142.6437  137.7668  158.6318 C.3     1  UNL1        0.0252
     10 C         142.6301  137.5541  160.1165 C.3     1  UNL1        0.0204
     11 C         142.3821  136.9026  157.4340 C.ar    1  UNL1       -0.0180
     12 C         143.3591  135.8290  157.0562 C.ar    1  UNL1        0.0255
     13 C         143.0976  134.9646  155.8584 C.ar    1  UNL1        0.1421
     14 F         144.0746  133.8911  155.4805 F       1  UNL1       -0.2041
     15 C         141.8590  135.1739  155.0385 C.ar    1  UNL1        0.0592
     16 C         140.8820  136.2476  155.4165 C.ar    1  UNL1        0.1421
     17 F         139.6434  136.4569  154.5966 F       1  UNL1       -0.2041
     18 C         141.1436  137.1119  156.6142 C.ar    1  UNL1        0.0255
     19 C         143.1791  143.6903  162.5327 C.2     1  UNL1        0.0513
     20 O         141.8090  144.2897  162.6491 O.co2   1  UNL1       -0.5491
     21 O         144.3703  144.5772  162.3221 O.co2   1  UNL1       -0.5491
     22 C         144.0598  142.4463  165.1166 C.3     1  UNL1        0.0033
     23 C         143.1611  142.3600  166.3144 C.3     1  UNL1        0.0339
     24 C         141.6750  142.4773  166.1471 C.3     1  UNL1        0.1350
     25 O         141.0997  143.5760  165.3034 O.3     1  UNL1       -0.3800
     26 H         141.8194  144.1170  164.9424 H       1  UNL1        0.2108
     27 C         139.6993  139.2207  163.7510 C.ar    1  UNL1        0.1388
     28 C         138.7886  138.2393  164.4273 C.ar    1  UNL1        0.0384
     29 C         138.5364  138.3434  165.9023 C.ar    1  UNL1        0.0222
     30 C         139.1950  139.4289  166.7010 C.ar    1  UNL1        0.0814
     31 N         138.9429  139.5330  168.1760 N.ar    1  UNL1       -0.2415
     32 C         139.6014  140.6185  168.9747 C.ar    1  UNL1        0.1281
     33 C         140.5122  141.6000  168.2984 C.ar    1  UNL1        0.1575
     34 F         141.1708  142.6855  169.0970 F       1  UNL1       -0.2028
     35 C         140.7643  141.4959  166.8234 C.ar    1  UNL1        0.0348
     36 C         140.1057  140.4103  166.0247 C.ar    1  UNL1        0.0212
     37 C         140.3578  140.3062  164.5497 C.ar    1  UNL1        0.0382
     38 C         139.2007  138.1096  161.4560 C.3     1  UNL1        0.2525
     39 O         139.9514  139.1166  162.2760 O.3     1  UNL1       -0.4714
@<TRIPOS>UNITY_ATOM_ATTR
20 1
charge -1
@<TRIPOS>BOND
     1    38    39    1
     2    39    27    1
     3    27    28   ar
     4    28    29   ar
     5    29    30   ar
     6    30    31   ar
     7    31    32   ar
     8    32    33   ar
     9    33    34    1
    10    33    35   ar
    11    35    24    1
    12    24    25    1
    13    24    23    1
    14    23    22    1
    15     1    22    1
    16     1     2    1
    17     2     3    1
    18     3     4    1
    19     4     7    1
    20     7     8    1
    21     8     9    1
    22     9    11    1
    23    11    12   ar
    24    12    13   ar
    25    13    14    1
    26    13    15   ar
    27    15    16   ar
    28    16    17    1
    29    16    18   ar
    30     9    10    1
    31     4     5    1
    32     5     6    1
    33     6    19    1
    34    19    20   ar
    35    19    21   ar
    36    35    36   ar
    37    36    37   ar
    38    37    27   ar
    39    36    30   ar
    40     6     1    1
    41    10     7    1
    42    18    11   ar
    43    25    26    1
@<TRIPOS>MOLECULE
*****
 39 43 0 0 0
SMALL
GASTEIGER

@<TRIPOS>ATOM
      1 C         139.7781  142.8509  160.2762 C.3     1  UNL1        0.0080
      2 C         139.6189  141.4977  160.9037 C.3     1  UNL1        0.0177
      3 C         139.8538  141.3207  162.3745 C.3     1  UNL1        0.0721
      4 N         140.2479  142.4968  163.2180 N.3     1  UNL1       -0.2736
      5 C         140.4070  143.8499  162.5907 C.3     1  UNL1        0.0776
      6 C         140.1721  144.0270  161.1197 C.3     1  UNL1        0.0525
      7 C         140.4828  142.3197  164.6888 C.3     1  UNL1        0.0582
      8 C         141.3785  141.4527  165.5231 C.3     1  UNL1        0.0204
      9 C         140.8150  142.0693  166.7691 C.3     1  UNL1        0.0252
     10 C         139.9193  142.9364  165.9348 C.3     1  UNL1        0.0204
     11 C         141.0499  141.8923  168.2399 C.ar    1  UNL1       -0.0180
     12 C         140.2910  140.8452  168.9999 C.ar    1  UNL1        0.0255
     13 C         140.5259  140.6681  170.4708 C.ar    1  UNL1        0.1421
     14 F         139.7669  139.6211  171.2308 F       1  UNL1       -0.2041
     15 C         141.5197  141.5382  171.1817 C.ar    1  UNL1        0.0592
     16 C         142.2787  142.5853  170.4216 C.ar    1  UNL1        0.1421
     17 F         143.2725  143.4553  171.1325 F       1  UNL1       -0.2041
     18 C         142.0438  142.7623  168.9508 C.ar    1  UNL1        0.0255
     19 C         140.3312  145.3802  160.4924 C.2     1  UNL1        0.0513
     20 O         141.4889  145.6514  159.5780 O.co2   1  UNL1       -0.5491
     21 O         139.3327  146.4621  160.7795 O.co2   1  UNL1       -0.5491
     22 C         139.5431  143.0279  158.8054 C.3     1  UNL1        0.0033
     23 C         140.5375  142.4939  157.8175 C.3     1  UNL1        0.0339
     24 C         142.0013  142.5068  158.1451 C.3     1  UNL1        0.1350
     25 O         142.8568  143.6600  157.7110 O.3     1  UNL1       -0.3800
     26 H         142.3118  144.3054  157.2341 H       1  UNL1        0.2108
     27 C         144.2071  143.2905  161.9883 C.ar    1  UNL1        0.1388
     28 C         144.8153  142.1503  162.7498 C.ar    1  UNL1        0.0384
     29 C         144.6884  140.7489  162.2303 C.ar    1  UNL1        0.0222
     30 C         143.9531  140.4876  160.9492 C.ar    1  UNL1        0.0814
     31 N         143.8261  139.0862  160.4297 N.ar    1  UNL1       -0.2415
     32 C         143.0909  138.8250  159.1486 C.ar    1  UNL1        0.1281
     33 C         142.4826  139.9652  158.3870 C.ar    1  UNL1        0.1575
     34 F         141.7473  139.7040  157.1060 F       1  UNL1       -0.2028
     35 C         142.6096  141.3666  158.9066 C.ar    1  UNL1        0.0348
     36 C         143.3448  141.6278  160.1877 C.ar    1  UNL1        0.0212
     37 C         143.4718  143.0292  160.7072 C.ar    1  UNL1        0.0382
     38 C         143.6565  145.0814  163.7881 C.3     1  UNL1        0.2525
     39 O         144.3341  144.6919  162.5078 O.3     1  UNL1       -0.4714
@<TRIPOS>UNITY_ATOM_ATTR
20 1
charge -1
@<TRIPOS>BOND
     1    38    39    1
     2    39    27    1
     3    27    28   ar
     4    28    29   ar
     5    29    30   ar
     6    30    31   ar
     7    31    32   ar
     8    32    33   ar
     9    33    34    1
    10    33    35   ar
    11    35    24    1
    12    24    25    1
    13    24    23    1
    14    23    22    1
    15     1    22    1
    16     1     2    1
    17     2     3    1
    18     3     4    1
    19     4     7    1
    20     7     8    1
    21     8     9    1
    22     9    11    1
    23    11    12   ar
    24    12    13   ar
    25    13    14    1
    26    13    15   ar
    27    15    16   ar
    28    16    17    1
    29    16    18   ar
    30     9    10    1
    31     4     5    1
    32     5     6    1
    33     6    19    1
    34    19    20   ar
    35    19    21   ar
    36    35    36   ar
    37    36    37   ar
    38    37    27   ar
    39    36    30   ar
    40     6     1    1
    41    10     7    1
    42    18    11   ar
    43    25    26    1
@<TRIPOS>MOLECULE
*****
 39 43 0 0 0
SMALL
GASTEIGER

@<TRIPOS>ATOM
      1 C         141.0461  142.8192  165.3422 C.3     1  UNL1        0.0080
      2 C         142.5362  142.9108  165.1965 C.3     1  UNL1        0.0177
      3 C         143.1692  142.7474  163.8465 C.3     1  UNL1        0.0721
      4 N         142.3122  142.4924  162.6422 N.3     1  UNL1       -0.2736
      5 C         140.8222  142.4008  162.7878 C.3     1  UNL1        0.0776
      6 C         140.1890  142.5642  164.1379 C.3     1  UNL1        0.0525
      7 C         142.9453  142.3290  161.2922 C.3     1  UNL1        0.0582
      8 C         143.8858  141.3369  160.6748 C.3     1  UNL1        0.0204
      9 C         143.8406  142.0978  159.3829 C.3     1  UNL1        0.0252
     10 C         142.9000  143.0899  160.0003 C.3     1  UNL1        0.0204
     11 C         144.4736  141.9344  158.0329 C.ar    1  UNL1       -0.0180
     12 C         143.7292  141.2337  156.9354 C.ar    1  UNL1        0.0255
     13 C         144.3622  141.0703  155.5853 C.ar    1  UNL1        0.1421
     14 F         143.6177  140.3695  154.4878 F       1  UNL1       -0.2041
     15 C         145.7397  141.6076  155.3329 C.ar    1  UNL1        0.0592
     16 C         146.4842  142.3084  156.4305 C.ar    1  UNL1        0.1421
     17 F         147.8617  142.8457  156.1781 F       1  UNL1       -0.2041
     18 C         145.8511  142.4718  157.7805 C.ar    1  UNL1        0.0255
     19 C         138.6990  142.4726  164.2835 C.2     1  UNL1        0.0513
     20 O         138.0556  141.1541  164.5956 O.co2   1  UNL1       -0.5491
     21 O         137.8523  143.6995  164.1170 O.co2   1  UNL1       -0.5491
     22 C         140.4130  142.9826  166.6922 C.3     1  UNL1        0.0033
     23 C         140.9178  142.1859  167.8586 C.3     1  UNL1        0.0339
     24 C         141.2987  140.7467  167.6753 C.3     1  UNL1        0.1350
     25 O         142.6287  140.2548  168.1642 O.3     1  UNL1       -0.3800
     26 H         143.1154  140.9888  168.5708 H       1  UNL1        0.2108
     27 C         142.5003  138.6889  163.8580 C.ar    1  UNL1        0.1388
     28 C         141.5512  137.7417  163.1858 C.ar    1  UNL1        0.0384
     29 C         140.2016  137.4804  163.7859 C.ar    1  UNL1        0.0222
     30 C         139.8011  138.1663  165.0583 C.ar    1  UNL1        0.0814
     31 N         138.4514  137.9049  165.6585 N.ar    1  UNL1       -0.2415
     32 C         138.0509  138.5908  166.9309 C.ar    1  UNL1        0.1281
     33 C         139.0000  139.5381  167.6032 C.ar    1  UNL1        0.1575
     34 F         138.5994  140.2240  168.8756 F       1  UNL1       -0.2028
     35 C         140.3496  139.7995  167.0030 C.ar    1  UNL1        0.0348
     36 C         140.7501  139.1135  165.7306 C.ar    1  UNL1        0.0212
     37 C         142.0998  139.3748  165.1304 C.ar    1  UNL1        0.0382
     38 C         144.9510  139.5152  164.1054 C.3     1  UNL1        0.2525
     39 O         143.8500  138.9503  163.2578 O.3     1  UNL1       -0.4714
@<TRIPOS>UNITY_ATOM_ATTR
20 1
charge -1
@<TRIPOS>BOND
     1    38    39    1
     2    39    27    1
     3    27    28   ar
     4    28    29   ar
     5    29    30   ar
     6    30    31   ar
     7    31    32   ar
     8    32    33   ar
     9    33    34    1
    10    33    35   ar
    11    35    24    1
    12    24    25    1
    13    24    23    1
    14    23    22    1
    15     1    22    1
    16     1     2    1
    17     2     3    1
    18     3     4    1
    19     4     7    1
    20     7     8    1
    21     8     9    1
    22     9    11    1
    23    11    12   ar
    24    12    13   ar
    25    13    14    1
    26    13    15   ar
    27    15    16   ar
    28    16    17    1
    29    16    18   ar
    30     9    10    1
    31     4     5    1
    32     5     6    1
    33     6    19    1
    34    19    20   ar
    35    19    21   ar
    36    35    36   ar
    37    36    37   ar
    38    37    27   ar
    39    36    30   ar
    40     6     1    1
    41    10     7    1
    42    18    11   ar
    43    25    26    1
@<TRIPOS>MOLECULE
*****
 39 43 0 0 0
SMALL
GASTEIGER

@<TRIPOS>ATOM
      1 C         143.2960  142.5676  161.8930 C.3     1  UNL1        0.0080
      2 C         142.4354  142.7287  160.6750 C.3     1  UNL1        0.0177
      3 C         142.3036  141.6006  159.6953 C.3     1  UNL1        0.0721
      4 N         143.0323  140.3113  159.9335 N.3     1  UNL1       -0.2736
      5 C         143.8928  140.1502  161.1514 C.3     1  UNL1        0.0776
      6 C         144.0247  141.2783  162.1312 C.3     1  UNL1        0.0525
      7 C         142.9005  139.1832  158.9537 C.3     1  UNL1        0.0582
      8 C         142.6261  137.7124  159.0603 C.3     1  UNL1        0.0204
      9 C         142.7140  137.5877  157.5681 C.3     1  UNL1        0.0252
     10 C         142.9884  139.0585  157.4615 C.3     1  UNL1        0.0204
     11 C         142.5822  136.4596  156.5883 C.ar    1  UNL1       -0.0180
     12 C         141.4948  136.4865  155.5555 C.ar    1  UNL1        0.0255
     13 C         141.3630  135.3584  154.5756 C.ar    1  UNL1        0.1421
     14 F         140.2756  135.3853  153.5427 F       1  UNL1       -0.2041
     15 C         142.3185  134.2033  154.6288 C.ar    1  UNL1        0.0592
     16 C         143.4059  134.1764  155.6617 C.ar    1  UNL1        0.1421
     17 F         144.3614  133.0214  155.7149 F       1  UNL1       -0.2041
     18 C         143.5377  135.3045  156.6415 C.ar    1  UNL1        0.0255
     19 C         144.8852  141.1171  163.3492 C.2     1  UNL1        0.0513
     20 O         144.3382  140.4375  164.5693 O.co2   1  UNL1       -0.5491
     21 O         146.2928  141.6356  163.3470 O.co2   1  UNL1       -0.5491
     22 C         143.4278  143.6957  162.8728 C.3     1  UNL1        0.0033
     23 C         142.4272  143.8484  163.9798 C.3     1  UNL1        0.0339
     24 C         141.4464  142.7488  164.2612 C.3     1  UNL1        0.1350
     25 O         141.8206  141.6285  165.1859 O.3     1  UNL1       -0.3800
     26 H         142.7235  141.7668  165.5125 H       1  UNL1        0.2108
     27 C         139.9713  139.1453  162.0054 C.ar    1  UNL1        0.1388
     28 C         138.6164  139.1661  161.3622 C.ar    1  UNL1        0.0384
     29 C         137.7532  140.3879  161.4709 C.ar    1  UNL1        0.0222
     30 C         138.2449  141.5891  162.2228 C.ar    1  UNL1        0.0814
     31 N         137.3817  142.8110  162.3315 N.ar    1  UNL1       -0.2415
     32 C         137.8733  144.0121  163.0835 C.ar    1  UNL1        0.1281
     33 C         139.2283  143.9914  163.7267 C.ar    1  UNL1        0.1575
     34 F         139.7200  145.1926  164.4787 F       1  UNL1       -0.2028
     35 C         140.0915  142.7695  163.6180 C.ar    1  UNL1        0.0348
     36 C         139.5998  141.5684  162.8660 C.ar    1  UNL1        0.0212
     37 C         140.4630  140.3465  162.7573 C.ar    1  UNL1        0.0382
     38 C         141.3698  137.2705  163.1365 C.3     1  UNL1        0.2525
     39 O         140.8346  137.9234  161.8966 O.3     1  UNL1       -0.4714
@<TRIPOS>UNITY_ATOM_ATTR
20 1
charge -1
@<TRIPOS>BOND
     1    38    39    1
     2    39    27    1
     3    27    28   ar
     4    28    29   ar
     5    29    30   ar
     6    30    31   ar
     7    31    32   ar
     8    32    33   ar
     9    33    34    1
    10    33    35   ar
    11    35    24    1
    12    24    25    1
    13    24    23    1
    14    23    22    1
    15     1    22    1
    16     1     2    1
    17     2     3    1
    18     3     4    1
    19     4     7    1
    20     7     8    1
    21     8     9    1
    22     9    11    1
    23    11    12   ar
    24    12    13   ar
    25    13    14    1
    26    13    15   ar
    27    15    16   ar
    28    16    17    1
    29    16    18   ar
    30     9    10    1
    31     4     5    1
    32     5     6    1
    33     6    19    1
    34    19    20   ar
    35    19    21   ar
    36    35    36   ar
    37    36    37   ar
    38    37    27   ar
    39    36    30   ar
    40     6     1    1
    41    10     7    1
    42    18    11   ar
    43    25    26    1
@<TRIPOS>MOLECULE
*****
 39 43 0 0 0
SMALL
GASTEIGER

@<TRIPOS>ATOM
      1 C         141.2760  138.2934  163.7372 C.3     1  UNL1        0.0080
      2 C         141.9555  138.3286  162.4003 C.3     1  UNL1        0.0177
      3 C         141.2583  138.9383  161.2204 C.3     1  UNL1        0.0721
      4 N         139.8816  139.5128  161.3773 N.3     1  UNL1       -0.2736
      5 C         139.2021  139.4776  162.7140 C.3     1  UNL1        0.0776
      6 C         139.8993  138.8679  163.8940 C.3     1  UNL1        0.0525
      7 C         139.1844  140.1224  160.1974 C.3     1  UNL1        0.0582
      8 C         139.2580  139.9386  158.7105 C.3     1  UNL1        0.0204
      9 C         138.1984  140.9846  158.5286 C.3     1  UNL1        0.0252
     10 C         138.1248  141.1684  160.0155 C.3     1  UNL1        0.0204
     11 C         137.5012  141.5943  157.3487 C.ar    1  UNL1       -0.0180
     12 C         136.4169  140.8348  156.6436 C.ar    1  UNL1        0.0255
     13 C         135.7196  141.4444  155.4636 C.ar    1  UNL1        0.1421
     14 F         134.6353  140.6849  154.7585 F       1  UNL1       -0.2041
     15 C         136.1068  142.8136  154.9889 C.ar    1  UNL1        0.0592
     16 C         137.1912  143.5732  155.6941 C.ar    1  UNL1        0.1421
     17 F         137.5783  144.9424  155.2193 F       1  UNL1       -0.2041
     18 C         137.8883  142.9635  156.8740 C.ar    1  UNL1        0.0255
     19 C         139.2197  138.8328  165.2308 C.2     1  UNL1        0.0513
     20 O         139.3283  140.0065  166.1584 O.co2   1  UNL1       -0.5491
     21 O         138.4316  137.6239  165.6399 O.co2   1  UNL1       -0.5491
     22 C         141.9732  137.6838  164.9171 C.3     1  UNL1        0.0033
     23 C         143.0833  138.4273  165.5986 C.3     1  UNL1        0.0339
     24 C         142.9589  139.9020  165.8432 C.3     1  UNL1        0.1350
     25 O         142.2062  140.4029  167.0401 O.3     1  UNL1       -0.3800
     26 H         141.8666  139.6490  167.5472 H       1  UNL1        0.2108
     27 C         140.8432  143.7424  164.8306 C.ar    1  UNL1        0.1388
     28 C         141.4715  144.7162  163.8783 C.ar    1  UNL1        0.0384
     29 C         142.8049  144.4099  163.2634 C.ar    1  UNL1        0.0222
     30 C         143.5102  143.1298  163.6009 C.ar    1  UNL1        0.0814
     31 N         144.8436  142.8235  162.9861 N.ar    1  UNL1       -0.2415
     32 C         145.5488  141.5434  163.3236 C.ar    1  UNL1        0.1281
     33 C         144.9206  140.5695  164.2760 C.ar    1  UNL1        0.1575
     34 F         145.6258  139.2894  164.6135 F       1  UNL1       -0.2028
     35 C         143.5871  140.8758  164.8908 C.ar    1  UNL1        0.0348
     36 C         142.8819  142.1560  164.5533 C.ar    1  UNL1        0.0212
     37 C         141.5484  142.4623  165.1681 C.ar    1  UNL1        0.0382
     38 C         138.3200  144.3030  164.5682 C.3     1  UNL1        0.2525
     39 O         139.5098  144.0487  165.4455 O.3     1  UNL1       -0.4714
@<TRIPOS>UNITY_ATOM_ATTR
20 1
charge -1
@<TRIPOS>BOND
     1    38    39    1
     2    39    27    1
     3    27    28   ar
     4    28    29   ar
     5    29    30   ar
     6    30    31   ar
     7    31    32   ar
     8    32    33   ar
     9    33    34    1
    10    33    35   ar
    11    35    24    1
    12    24    25    1
    13    24    23    1
    14    23    22    1
    15     1    22    1
    16     1     2    1
    17     2     3    1
    18     3     4    1
    19     4     7    1
    20     7     8    1
    21     8     9    1
    22     9    11    1
    23    11    12   ar
    24    12    13   ar
    25    13    14    1
    26    13    15   ar
    27    15    16   ar
    28    16    17    1
    29    16    18   ar
    30     9    10    1
    31     4     5    1
    32     5     6    1
    33     6    19    1
    34    19    20   ar
    35    19    21   ar
    36    35    36   ar
    37    36    37   ar
    38    37    27   ar
    39    36    30   ar
    40     6     1    1
    41    10     7    1
    42    18    11   ar
    43    25    26    1
@<TRIPOS>MOLECULE
*****
 39 43 0 0 0
SMALL
GASTEIGER

@<TRIPOS>ATOM
      1 C         139.6703  141.8723  159.9067 C.3     1  UNL1        0.0080
      2 C         138.9291  141.0508  160.9196 C.3     1  UNL1        0.0177
      3 C         139.2841  141.1537  162.3734 C.3     1  UNL1        0.0721
      4 N         140.3801  142.0779  162.8142 N.3     1  UNL1       -0.2736
      5 C         141.1212  142.8994  161.8014 C.3     1  UNL1        0.0776
      6 C         140.7663  142.7966  160.3475 C.3     1  UNL1        0.0525
      7 C         140.7350  142.1808  164.2680 C.3     1  UNL1        0.0582
      8 C         141.2814  141.2348  165.2959 C.3     1  UNL1        0.0204
      9 C         141.2370  142.3262  166.3240 C.3     1  UNL1        0.0252
     10 C         140.6907  143.2722  165.2961 C.3     1  UNL1        0.0204
     11 C         141.5920  142.4291  167.7777 C.ar    1  UNL1       -0.0180
     12 C         140.5113  142.6053  168.8029 C.ar    1  UNL1        0.0255
     13 C         140.8662  142.7081  170.2568 C.ar    1  UNL1        0.1421
     14 F         139.7855  142.8843  171.2819 F       1  UNL1       -0.2041
     15 C         142.3018  142.6348  170.6853 C.ar    1  UNL1        0.0592
     16 C         143.3825  142.4586  169.6600 C.ar    1  UNL1        0.1421
     17 F         144.8181  142.3853  170.0886 F       1  UNL1       -0.2041
     18 C         143.0276  142.3558  168.2063 C.ar    1  UNL1        0.0255
     19 C         141.5074  143.6180  159.3347 C.2     1  UNL1        0.0513
     20 O         142.8544  143.1721  158.8480 O.co2   1  UNL1       -0.5491
     21 O         140.9016  144.8853  158.8085 O.co2   1  UNL1       -0.5491
     22 C         139.3153  141.7694  158.4529 C.3     1  UNL1        0.0033
     23 C         138.8108  140.4721  157.8941 C.3     1  UNL1        0.0339
     24 C         139.7717  139.3590  157.5975 C.3     1  UNL1        0.1350
     25 O         139.2646  138.0542  157.0586 O.3     1  UNL1       -0.3800
     26 H         138.3005  138.0973  156.9615 H       1  UNL1        0.2108
     27 C         141.6275  137.9079  161.4316 C.ar    1  UNL1        0.1388
     28 C         143.0953  138.0996  161.6739 C.ar    1  UNL1        0.0384
     29 C         143.9445  138.7751  160.6383 C.ar    1  UNL1        0.0222
     30 C         143.3259  139.2588  159.3602 C.ar    1  UNL1        0.0814
     31 N         144.1751  139.9342  158.3246 N.ar    1  UNL1       -0.2415
     32 C         143.5566  140.4179  157.0466 C.ar    1  UNL1        0.1281
     33 C         142.0887  140.2262  156.8042 C.ar    1  UNL1        0.1575
     34 F         141.4701  140.7099  155.5262 F       1  UNL1       -0.2028
     35 C         141.2395  139.5507  157.8399 C.ar    1  UNL1        0.0348
     36 C         141.8581  139.0670  159.1179 C.ar    1  UNL1        0.0212
     37 C         141.0089  138.3916  160.1536 C.ar    1  UNL1        0.0382
     38 C         141.1713  137.2906  163.9137 C.3     1  UNL1        0.2525
     39 O         140.7783  137.2325  162.4673 O.3     1  UNL1       -0.4714
@<TRIPOS>UNITY_ATOM_ATTR
20 1
charge -1
@<TRIPOS>BOND
     1    38    39    1
     2    39    27    1
     3    27    28   ar
     4    28    29   ar
     5    29    30   ar
     6    30    31   ar
     7    31    32   ar
     8    32    33   ar
     9    33    34    1
    10    33    35   ar
    11    35    24    1
    12    24    25    1
    13    24    23    1
    14    23    22    1
    15     1    22    1
    16     1     2    1
    17     2     3    1
    18     3     4    1
    19     4     7    1
    20     7     8    1
    21     8     9    1
    22     9    11    1
    23    11    12   ar
    24    12    13   ar
    25    13    14    1
    26    13    15   ar
    27    15    16   ar
    28    16    17    1
    29    16    18   ar
    30     9    10    1
    31     4     5    1
    32     5     6    1
    33     6    19    1
    34    19    20   ar
    35    19    21   ar
    36    35    36   ar
    37    36    37   ar
    38    37    27   ar
    39    36    30   ar
    40     6     1    1
    41    10     7    1
    42    18    11   ar
    43    25    26    1
@<TRIPOS>MOLECULE
*****
 39 43 0 0 0
SMALL
GASTEIGER

@<TRIPOS>ATOM
      1 C         139.8906  139.7273  159.8194 C.3     1  UNL1        0.0080
      2 C         140.0648  138.6277  160.8247 C.3     1  UNL1        0.0177
      3 C         140.1203  138.9514  162.2883 C.3     1  UNL1        0.0721
      4 N         140.0014  140.3747  162.7466 N.3     1  UNL1       -0.2736
      5 C         139.8272  141.4743  161.7414 C.3     1  UNL1        0.0776
      6 C         139.7718  141.1506  160.2778 C.3     1  UNL1        0.0525
      7 C         140.0569  140.6984  164.2102 C.3     1  UNL1        0.0582
      8 C         141.1554  140.8863  165.2141 C.3     1  UNL1        0.0204
      9 C         140.1353  141.1562  166.2801 C.3     1  UNL1        0.0252
     10 C         139.0367  140.9682  165.2763 C.3     1  UNL1        0.0204
     11 C         140.1907  141.4799  167.7437 C.ar    1  UNL1       -0.0180
     12 C         139.9873  140.3955  168.7599 C.ar    1  UNL1        0.0255
     13 C         140.0428  140.7192  170.2235 C.ar    1  UNL1        0.1421
     14 F         139.8394  139.6347  171.2397 F       1  UNL1       -0.2041
     15 C         140.3015  142.1273  170.6710 C.ar    1  UNL1        0.0592
     16 C         140.5048  143.2118  169.6547 C.ar    1  UNL1        0.1421
     17 F         140.7635  144.6199  170.1021 F       1  UNL1       -0.2041
     18 C         140.4494  142.8881  168.1911 C.ar    1  UNL1        0.0255
     19 C         139.5976  142.2502  159.2726 C.2     1  UNL1        0.0513
     20 O         140.7867  142.7811  158.5282 O.co2   1  UNL1       -0.5491
     21 O         138.2343  142.8188  159.0117 O.co2   1  UNL1       -0.5491
     22 C         139.8352  139.4036  158.3558 C.3     1  UNL1        0.0033
     23 C         140.8023  138.4188  157.7684 C.3     1  UNL1        0.0339
     24 C         142.2723  138.5644  158.0292 C.3     1  UNL1        0.1350
     25 O         143.1023  137.3543  158.3400 O.3     1  UNL1       -0.3800
     26 H         142.5385  136.5650  158.3329 H       1  UNL1        0.2108
     27 C         143.9961  140.3784  161.7692 C.ar    1  UNL1        0.1388
     28 C         144.6360  141.7341  161.7191 C.ar    1  UNL1        0.0384
     29 C         144.7014  142.4851  160.4223 C.ar    1  UNL1        0.0222
     30 C         144.1268  141.8805  159.1757 C.ar    1  UNL1        0.0814
     31 N         144.1921  142.6316  157.8789 N.ar    1  UNL1       -0.2415
     32 C         143.6175  142.0270  156.6322 C.ar    1  UNL1        0.1281
     33 C         142.9775  140.6712  156.6823 C.ar    1  UNL1        0.1575
     34 F         142.4029  140.0666  155.4356 F       1  UNL1       -0.2028
     35 C         142.9122  139.9201  157.9791 C.ar    1  UNL1        0.0348
     36 C         143.4868  140.5248  159.2258 C.ar    1  UNL1        0.0212
     37 C         143.4215  139.7738  160.5225 C.ar    1  UNL1        0.0382
     38 C         144.9455  139.8926  164.1383 C.3     1  UNL1        0.2525
     39 O         143.9308  139.6273  163.0660 O.3     1  UNL1       -0.4714
@<TRIPOS>UNITY_ATOM_ATTR
20 1
charge -1
@<TRIPOS>BOND
     1    38    39    1
     2    39    27    1
     3    27    28   ar
     4    28    29   ar
     5    29    30   ar
     6    30    31   ar
     7    31    32   ar
     8    32    33   ar
     9    33    34    1
    10    33    35   ar
    11    35    24    1
    12    24    25    1
    13    24    23    1
    14    23    22    1
    15     1    22    1
    16     1     2    1
    17     2     3    1
    18     3     4    1
    19     4     7    1
    20     7     8    1
    21     8     9    1
    22     9    11    1
    23    11    12   ar
    24    12    13   ar
    25    13    14    1
    26    13    15   ar
    27    15    16   ar
    28    16    17    1
    29    16    18   ar
    30     9    10    1
    31     4     5    1
    32     5     6    1
    33     6    19    1
    34    19    20   ar
    35    19    21   ar
    36    35    36   ar
    37    36    37   ar
    38    37    27   ar
    39    36    30   ar
    40     6     1    1
    41    10     7    1
    42    18    11   ar
    43    25    26    1
@<TRIPOS>MOLECULE
*****
 39 43 0 0 0
SMALL
GASTEIGER

@<TRIPOS>ATOM
      1 C         141.9430  138.3055  159.2160 C.3     1  UNL1        0.0080
      2 C         142.8455  137.6195  160.1984 C.3     1  UNL1        0.0177
      3 C         142.7177  137.9105  161.6643 C.3     1  UNL1        0.0721
      4 N         141.6873  138.8875  162.1479 N.3     1  UNL1       -0.2736
      5 C         140.7848  139.5734  161.1656 C.3     1  UNL1        0.0776
      6 C         140.9126  139.2824  159.6996 C.3     1  UNL1        0.0525
      7 C         141.5594  139.1785  163.6138 C.3     1  UNL1        0.0582
      8 C         140.8681  140.2301  164.4300 C.3     1  UNL1        0.0204
      9 C         141.3786  139.5902  165.6870 C.3     1  UNL1        0.0252
     10 C         142.0699  138.5386  164.8707 C.3     1  UNL1        0.0204
     11 C         141.2507  139.8812  167.1529 C.ar    1  UNL1       -0.0180
     12 C         139.8927  139.9840  167.7814 C.ar    1  UNL1        0.0255
     13 C         139.7648  140.2750  169.2474 C.ar    1  UNL1        0.1421
     14 F         138.4067  140.3778  169.8759 F       1  UNL1       -0.2041
     15 C         140.9950  140.4633  170.0848 C.ar    1  UNL1        0.0592
     16 C         142.3531  140.3605  169.4562 C.ar    1  UNL1        0.1421
     17 F         143.5832  140.5488  170.2935 F       1  UNL1       -0.2041
     18 C         142.4809  140.0695  167.9903 C.ar    1  UNL1        0.0255
     19 C         140.0101  139.9684  158.7173 C.2     1  UNL1        0.0513
     20 O         138.7183  139.3244  158.3093 O.co2   1  UNL1       -0.5491
     21 O         140.3994  141.2983  158.1430 O.co2   1  UNL1       -0.5491
     22 C         142.0708  138.0144  157.7501 C.3     1  UNL1        0.0033
     23 C         142.9865  138.8425  156.8982 C.3     1  UNL1        0.0339
     24 C         143.8023  138.1909  155.8211 C.3     1  UNL1        0.1350
     25 O         145.2750  138.4609  155.7288 O.3     1  UNL1       -0.3800
     26 H         145.5364  139.0728  156.4346 H       1  UNL1        0.2108
     27 C         143.8314  133.7476  156.5326 C.ar    1  UNL1        0.1388
     28 C         143.1746  132.8262  155.5480 C.ar    1  UNL1        0.0384
     29 C         142.5081  133.3858  154.3262 C.ar    1  UNL1        0.0222
     30 C         142.4985  134.8668  154.0891 C.ar    1  UNL1        0.0814
     31 N         141.8320  135.4264  152.8673 N.ar    1  UNL1       -0.2415
     32 C         141.8223  136.9075  152.6301 C.ar    1  UNL1        0.1281
     33 C         142.4791  137.8291  153.6148 C.ar    1  UNL1        0.1575
     34 F         142.4695  139.3101  153.3776 F       1  UNL1       -0.2028
     35 C         143.1456  137.2695  154.8365 C.ar    1  UNL1        0.0348
     36 C         143.1552  135.7883  155.0737 C.ar    1  UNL1        0.0212
     37 C         143.8217  135.2287  156.2954 C.ar    1  UNL1        0.0382
     38 C         145.2194  131.8752  157.6802 C.3     1  UNL1        0.2525
     39 O         144.4978  133.1880  157.7543 O.3     1  UNL1       -0.4714
@<TRIPOS>UNITY_ATOM_ATTR
20 1
charge -1
@<TRIPOS>BOND
     1    38    39    1
     2    39    27    1
     3    27    28   ar
     4    28    29   ar
     5    29    30   ar
     6    30    31   ar
     7    31    32   ar
     8    32    33   ar
     9    33    34    1
    10    33    35   ar
    11    35    24    1
    12    24    25    1
    13    24    23    1
    14    23    22    1
    15     1    22    1
    16     1     2    1
    17     2     3    1
    18     3     4    1
    19     4     7    1
    20     7     8    1
    21     8     9    1
    22     9    11    1
    23    11    12   ar
    24    12    13   ar
    25    13    14    1
    26    13    15   ar
    27    15    16   ar
    28    16    17    1
    29    16    18   ar
    30     9    10    1
    31     4     5    1
    32     5     6    1
    33     6    19    1
    34    19    20   ar
    35    19    21   ar
    36    35    36   ar
    37    36    37   ar
    38    37    27   ar
    39    36    30   ar
    40     6     1    1
    41    10     7    1
    42    18    11   ar
    43    25    26    1
@<TRIPOS>MOLECULE
*****
 39 43 0 0 0
SMALL
GASTEIGER

@<TRIPOS>ATOM
      1 C         143.7359  142.8021  160.1869 C.3     1  UNL1        0.0080
      2 C         144.7154  142.1218  161.0968 C.3     1  UNL1        0.0177
      3 C         144.3949  141.9536  162.5524 C.3     1  UNL1        0.0721
      4 N         143.0950  142.4656  163.0982 N.3     1  UNL1       -0.2736
      5 C         142.1155  143.1458  162.1884 C.3     1  UNL1        0.0776
      6 C         142.4359  143.3141  160.7327 C.3     1  UNL1        0.0525
      7 C         142.7745  142.2974  164.5539 C.3     1  UNL1        0.0582
      8 C         143.4946  142.5830  165.8384 C.3     1  UNL1        0.0204
      9 C         142.3213  142.0595  166.6126 C.3     1  UNL1        0.0252
     10 C         141.6012  141.7739  165.3281 C.3     1  UNL1        0.0204
     11 C         142.0008  141.8913  168.0683 C.ar    1  UNL1       -0.0180
     12 C         140.9003  142.6974  168.6919 C.ar    1  UNL1        0.0255
     13 C         140.5798  142.5292  170.1477 C.ar    1  UNL1        0.1421
     14 F         139.4792  143.3352  170.7713 F       1  UNL1       -0.2041
     15 C         141.3599  141.5549  170.9797 C.ar    1  UNL1        0.0592
     16 C         142.4605  140.7488  170.3559 C.ar    1  UNL1        0.1421
     17 F         143.2406  139.7745  171.1879 F       1  UNL1       -0.2041
     18 C         142.7809  140.9170  168.9003 C.ar    1  UNL1        0.0255
     19 C         141.4564  143.9943  159.8229 C.2     1  UNL1        0.0513
     20 O         141.6231  145.4483  159.4940 O.co2   1  UNL1       -0.5491
     21 O         140.3102  143.2206  159.2419 O.co2   1  UNL1       -0.5491
     22 C         144.0563  142.9703  158.7312 C.3     1  UNL1        0.0033
     23 C         143.4078  142.0803  157.7128 C.3     1  UNL1        0.0339
     24 C         143.1828  140.6293  158.0195 C.3     1  UNL1        0.1350
     25 O         144.3535  139.7024  158.1614 O.3     1  UNL1       -0.3800
     26 H         145.1764  140.1978  158.0261 H       1  UNL1        0.2108
     27 C         141.8890  138.8723  161.9551 C.ar    1  UNL1        0.1388
     28 C         140.4932  138.3483  162.1199 C.ar    1  UNL1        0.0384
     29 C         139.5287  138.4099  160.9727 C.ar    1  UNL1        0.0222
     30 C         139.9600  138.9955  159.6609 C.ar    1  UNL1        0.0814
     31 N         138.9954  139.0571  158.5138 N.ar    1  UNL1       -0.2415
     32 C         139.4267  139.6427  157.2019 C.ar    1  UNL1        0.1281
     33 C         140.8225  140.1668  157.0371 C.ar    1  UNL1        0.1575
     34 F         141.2537  140.7524  155.7252 F       1  UNL1       -0.2028
     35 C         141.7870  140.1052  158.1842 C.ar    1  UNL1        0.0348
     36 C         141.3557  139.5195  159.4961 C.ar    1  UNL1        0.0212
     37 C         142.3202  139.4580  160.6433 C.ar    1  UNL1        0.0382
     38 C         142.3920  138.3274  164.4451 C.3     1  UNL1        0.2525
     39 O         142.8535  138.8108  163.1023 O.3     1  UNL1       -0.4714
@<TRIPOS>UNITY_ATOM_ATTR
20 1
charge -1
@<TRIPOS>BOND
     1    38    39    1
     2    39    27    1
     3    27    28   ar
     4    28    29   ar
     5    29    30   ar
     6    30    31   ar
     7    31    32   ar
     8    32    33   ar
     9    33    34    1
    10    33    35   ar
    11    35    24    1
    12    24    25    1
    13    24    23    1
    14    23    22    1
    15     1    22    1
    16     1     2    1
    17     2     3    1
    18     3     4    1
    19     4     7    1
    20     7     8    1
    21     8     9    1
    22     9    11    1
    23    11    12   ar
    24    12    13   ar
    25    13    14    1
    26    13    15   ar
    27    15    16   ar
    28    16    17    1
    29    16    18   ar
    30     9    10    1
    31     4     5    1
    32     5     6    1
    33     6    19    1
    34    19    20   ar
    35    19    21   ar
    36    35    36   ar
    37    36    37   ar
    38    37    27   ar
    39    36    30   ar
    40     6     1    1
    41    10     7    1
    42    18    11   ar
    43    25    26    1
