@<TRIPOS>MOLECULE
*****
 33 36 0 0 0
SMALL
GASTEIGER

@<TRIPOS>ATOM
      1 C         140.3798  143.3027  163.9494 C.ar    1  UNL1        0.1122
      2 N         139.8917  142.4842  162.7910 N.ar    1  UNL1       -0.2259
      3 C         138.9460  143.3306  161.9912 C.ar    1  UNL1        0.1412
      4 C         138.8497  144.6721  162.6555 C.ar    1  UNL1        0.0710
      5 S         139.7358  144.6549  163.8656 S.2     1  UNL1       -0.0670
      6 C         139.9311  140.1718  168.3365 C.3     1  UNL1        0.0320
      7 C         140.4016  141.0641  167.2264 C.3     1  UNL1        0.1155
      8 C         141.8352  141.5024  167.1729 C.3     1  UNL1        0.0328
      9 C         142.3057  142.3947  166.0627 C.3     1  UNL1        0.0426
     10 C         143.7393  142.8329  166.0093 C.3     1  UNL1        0.0673
     11 S         144.2099  143.7252  164.8991 S.3     1  UNL1       -0.0807
     12 C         143.2468  144.1792  163.8424 C.2     1  UNL1        0.1483
     13 N         143.7174  145.0715  162.7323 N.pl3   1  UNL1       -0.3380
     14 N         141.8133  143.7409  163.8959 N.2     1  UNL1       -0.2464
     15 C         141.3428  142.8487  165.0061 C.3     1  UNL1        0.1549
     16 C         139.9092  142.4104  165.0596 C.3     1  UNL1        0.1705
     17 O         139.4387  141.5181  166.1697 O.3     1  UNL1       -0.3538
     18 H         144.6583  145.3591  162.6972 H       1  UNL1        0.1442
     19 H         143.0853  145.3694  162.0388 H       1  UNL1        0.1442
     20 N         138.2236  142.9094  160.7460 N.am    1  UNL1       -0.2641
     21 C         138.9883  142.6821  159.4758 C.2     1  UNL1        0.2699
     22 O         140.4755  142.8760  159.4509 O.2     1  UNL1       -0.2681
     23 H         137.2475  142.7822  160.7624 H       1  UNL1        0.1566
     24 C         138.2658  142.2610  158.2306 C.ar    1  UNL1        0.1541
     25 C         137.7172  140.8695  158.1160 C.ar    1  UNL1        0.1258
     26 N         136.9948  140.4484  156.8708 N.ar    1  UNL1       -0.2070
     27 C         136.8209  141.4185  155.7401 C.ar    1  UNL1        0.2490
     28 C         137.3694  142.8099  155.8547 C.ar    1  UNL1        0.1567
     29 N         138.0919  143.2311  157.0999 N.ar    1  UNL1       -0.2328
     30 O         136.0984  140.9973  154.4949 O.3     1  UNL1       -0.4051
     31 C         134.7200  140.4135  154.5887 C.3     1  UNL1        0.5098
     32 F         134.5205  139.0542  155.1908 F       1  UNL1       -0.1549
     33 F         133.5409  141.1890  154.0804 F       1  UNL1       -0.1549
@<TRIPOS>BOND
     1     7     6    1
     2     7     8    1
     3     9     8    1
     4     9    10    1
     5    10    11    1
     6    11    12    1
     7    12    13    1
     8    12    14    2
     9    14    15    1
    10    15     1    1
    11     1     2   ar
    12     2     3   ar
    13     3    20    1
    14    20    21   am
    15    21    22    2
    16    21    24    1
    17    24    25   ar
    18    25    26   ar
    19    26    27   ar
    20    27    30    1
    21    30    31    1
    22    31    32    1
    23    31    33    1
    24    27    28   ar
    25    28    29   ar
    26     3     4   ar
    27     4     5   ar
    28    15    16    1
    29    16    17    1
    30    17     7    1
    31    15     9    1
    32     5     1   ar
    33    29    24   ar
    34    13    18    1
    35    13    19    1
    36    20    23    1
@<TRIPOS>MOLECULE
*****
 33 36 0 0 0
SMALL
GASTEIGER

@<TRIPOS>ATOM
      1 C         141.3768  140.9749  164.5855 C.ar    1  UNL1        0.1122
      2 N         140.6641  141.8352  163.5844 N.ar    1  UNL1       -0.2259
      3 C         141.3725  141.6997  162.2691 C.ar    1  UNL1        0.1412
      4 C         142.5229  140.7557  162.4573 C.ar    1  UNL1        0.0710
      5 S         142.5256  140.3077  163.8888 S.2     1  UNL1       -0.0670
      6 C         137.4466  138.3031  167.1671 C.3     1  UNL1        0.0320
      7 C         138.6330  139.1390  166.7879 C.3     1  UNL1        0.1155
      8 C         139.4484  139.8105  167.8528 C.3     1  UNL1        0.0328
      9 C         140.6348  140.6464  167.4736 C.3     1  UNL1        0.0426
     10 C         141.4503  141.3180  168.5386 C.3     1  UNL1        0.0673
     11 S         142.6367  142.1538  168.1594 S.3     1  UNL1       -0.0807
     12 C         143.0077  142.3181  166.7152 C.2     1  UNL1        0.1483
     13 N         144.1941  143.1539  166.3360 N.pl3   1  UNL1       -0.3380
     14 N         142.1922  141.6465  165.6504 N.2     1  UNL1       -0.2464
     15 C         141.0058  140.8107  166.0296 C.3     1  UNL1        0.1549
     16 C         140.1904  140.1391  164.9647 C.3     1  UNL1        0.1705
     17 O         139.0039  139.3032  165.3439 O.3     1  UNL1       -0.3538
     18 H         144.7293  143.5947  167.0350 H       1  UNL1        0.1442
     19 H         144.4376  143.2617  165.3882 H       1  UNL1        0.1442
     20 N         140.9964  142.3875  160.9902 N.am    1  UNL1       -0.2641
     21 C         141.7937  143.5630  160.5083 C.2     1  UNL1        0.2699
     22 O         142.9672  144.0507  161.3053 O.2     1  UNL1       -0.2681
     23 H         140.2262  142.0673  160.4672 H       1  UNL1        0.1566
     24 C         141.4177  144.2507  159.2294 C.ar    1  UNL1        0.1541
     25 C         140.1493  143.8765  158.5215 C.ar    1  UNL1        0.1258
     26 N         139.7732  144.5643  157.2426 N.ar    1  UNL1       -0.2070
     27 C         140.6655  145.6262  156.6716 C.ar    1  UNL1        0.2490
     28 C         141.9339  146.0004  157.3796 C.ar    1  UNL1        0.1567
     29 N         142.3099  145.3126  158.6585 N.ar    1  UNL1       -0.2328
     30 O         140.2894  146.3140  155.3928 O.3     1  UNL1       -0.4051
     31 C         139.3950  147.5176  155.4234 C.3     1  UNL1        0.5098
     32 F         139.2033  148.3413  154.1846 F       1  UNL1       -0.1549
     33 F         138.6923  147.8977  156.6930 F       1  UNL1       -0.1549
@<TRIPOS>BOND
     1     7     6    1
     2     7     8    1
     3     9     8    1
     4     9    10    1
     5    10    11    1
     6    11    12    1
     7    12    13    1
     8    12    14    2
     9    14    15    1
    10    15     1    1
    11     1     2   ar
    12     2     3   ar
    13     3    20    1
    14    20    21   am
    15    21    22    2
    16    21    24    1
    17    24    25   ar
    18    25    26   ar
    19    26    27   ar
    20    27    30    1
    21    30    31    1
    22    31    32    1
    23    31    33    1
    24    27    28   ar
    25    28    29   ar
    26     3     4   ar
    27     4     5   ar
    28    15    16    1
    29    16    17    1
    30    17     7    1
    31    15     9    1
    32     5     1   ar
    33    29    24   ar
    34    13    18    1
    35    13    19    1
    36    20    23    1
@<TRIPOS>MOLECULE
*****
 33 36 0 0 0
SMALL
GASTEIGER

@<TRIPOS>ATOM
      1 C         141.4781  142.1406  163.1892 C.ar    1  UNL1        0.1122
      2 N         141.9818  141.6503  161.8641 N.ar    1  UNL1       -0.2259
      3 C         143.4118  142.0813  161.7235 C.ar    1  UNL1        0.1412
      4 C         143.7917  142.8380  162.9617 C.ar    1  UNL1        0.0710
      5 S         142.5967  142.8747  163.8676 S.2     1  UNL1       -0.0670
      6 C         138.8494  137.8679  165.2100 C.3     1  UNL1        0.0320
      7 C         139.2656  139.2230  164.7198 C.3     1  UNL1        0.1155
      8 C         138.3019  140.3709  164.7798 C.3     1  UNL1        0.0328
      9 C         138.7182  141.7261  164.2896 C.3     1  UNL1        0.0426
     10 C         137.7544  142.8740  164.3496 C.3     1  UNL1        0.0673
     11 S         138.1707  144.2291  163.8594 S.3     1  UNL1       -0.0807
     12 C         139.5507  144.4364  163.3092 C.2     1  UNL1        0.1483
     13 N         139.9670  145.7915  162.8190 N.pl3   1  UNL1       -0.3380
     14 N         140.5144  143.2885  163.2492 N.2     1  UNL1       -0.2464
     15 C         140.0981  141.9333  163.7394 C.3     1  UNL1        0.1549
     16 C         141.0618  140.7855  163.6794 C.3     1  UNL1        0.1705
     17 O         140.6456  139.4303  164.1696 O.3     1  UNL1       -0.3538
     18 H         139.3344  146.5449  162.8583 H       1  UNL1        0.1442
     19 H         140.8727  145.9276  162.4579 H       1  UNL1        0.1442
     20 N         144.3048  141.8043  160.5506 N.am    1  UNL1       -0.2641
     21 C         144.1640  142.6106  159.2938 C.2     1  UNL1        0.2699
     22 O         143.1300  143.6942  159.2097 O.2     1  UNL1       -0.2681
     23 H         144.9834  141.0931  160.6058 H       1  UNL1        0.1566
     24 C         145.0571  142.3336  158.1209 C.ar    1  UNL1        0.1541
     25 C         144.5916  141.4251  157.0218 C.ar    1  UNL1        0.1258
     26 N         145.4847  141.1480  155.8490 N.ar    1  UNL1       -0.2070
     27 C         146.8432  141.7794  155.7751 C.ar    1  UNL1        0.2490
     28 C         147.3087  142.6880  156.8742 C.ar    1  UNL1        0.1567
     29 N         146.4157  142.9650  158.0470 N.ar    1  UNL1       -0.2328
     30 O         147.7363  141.5024  154.6023 O.3     1  UNL1       -0.4051
     31 C         149.1321  142.0510  154.5764 C.3     1  UNL1        0.5098
     32 F         150.1857  141.4630  155.4675 F       1  UNL1       -0.1549
     33 F         149.4743  143.1875  153.6593 F       1  UNL1       -0.1549
@<TRIPOS>BOND
     1     7     6    1
     2     7     8    1
     3     9     8    1
     4     9    10    1
     5    10    11    1
     6    11    12    1
     7    12    13    1
     8    12    14    2
     9    14    15    1
    10    15     1    1
    11     1     2   ar
    12     2     3   ar
    13     3    20    1
    14    20    21   am
    15    21    22    2
    16    21    24    1
    17    24    25   ar
    18    25    26   ar
    19    26    27   ar
    20    27    30    1
    21    30    31    1
    22    31    32    1
    23    31    33    1
    24    27    28   ar
    25    28    29   ar
    26     3     4   ar
    27     4     5   ar
    28    15    16    1
    29    16    17    1
    30    17     7    1
    31    15     9    1
    32     5     1   ar
    33    29    24   ar
    34    13    18    1
    35    13    19    1
    36    20    23    1
@<TRIPOS>MOLECULE
*****
 33 36 0 0 0
SMALL
GASTEIGER

@<TRIPOS>ATOM
      1 C         142.5282  142.2902  165.0819 C.ar    1  UNL1        0.1122
      2 N         141.6987  142.4735  163.8456 N.ar    1  UNL1       -0.2259
      3 C         142.1769  143.7113  163.1459 C.ar    1  UNL1        0.1412
      4 C         143.3019  144.2929  163.9499 C.ar    1  UNL1        0.0710
      5 S         143.5190  143.4146  165.1463 S.2     1  UNL1       -0.0670
      6 C         139.7631  141.7069  169.6932 C.3     1  UNL1        0.0320
      7 C         140.6391  141.5306  168.4884 C.3     1  UNL1        0.1155
      8 C         141.3778  140.2418  168.2804 C.3     1  UNL1        0.0328
      9 C         142.2538  140.0654  167.0756 C.3     1  UNL1        0.0426
     10 C         142.9925  138.7766  166.8677 C.3     1  UNL1        0.0673
     11 S         143.8685  138.6002  165.6629 S.3     1  UNL1       -0.0807
     12 C         144.0057  139.7127  164.6660 C.2     1  UNL1        0.1483
     13 N         144.8817  139.5363  163.4612 N.pl3   1  UNL1       -0.3380
     14 N         143.2669  141.0014  164.8740 N.2     1  UNL1       -0.2464
     15 C         142.3910  141.1778  166.0788 C.3     1  UNL1        0.1549
     16 C         141.6522  142.4666  166.2867 C.3     1  UNL1        0.1705
     17 O         140.7763  142.6429  167.4916 O.3     1  UNL1       -0.3538
     18 H         145.3665  138.6904  163.3247 H       1  UNL1        0.1442
     19 H         144.9717  140.2664  162.8069 H       1  UNL1        0.1442
     20 N         141.6267  144.2694  161.8670 N.am    1  UNL1       -0.2641
     21 C         142.3879  144.0995  160.5858 C.2     1  UNL1        0.2699
     22 O         143.6995  143.3714  160.5835 O.2     1  UNL1       -0.2681
     23 H         140.7659  144.7472  161.8685 H       1  UNL1        0.1566
     24 C         141.8377  144.6576  159.3068 C.ar    1  UNL1        0.1541
     25 C         140.4404  145.2014  159.2656 C.ar    1  UNL1        0.1258
     26 N         139.8902  145.7595  157.9867 N.ar    1  UNL1       -0.2070
     27 C         140.7372  145.7738  156.7489 C.ar    1  UNL1        0.2490
     28 C         142.1346  145.2300  156.7901 C.ar    1  UNL1        0.1567
     29 N         142.6848  144.6719  158.0690 N.ar    1  UNL1       -0.2328
     30 O         140.1870  146.3319  155.4699 O.3     1  UNL1       -0.4051
     31 C         138.8225  146.9544  155.4490 C.3     1  UNL1        0.5098
     32 F         137.6475  146.1690  154.9465 F       1  UNL1       -0.1549
     33 F         138.6330  148.3623  155.9305 F       1  UNL1       -0.1549
@<TRIPOS>BOND
     1     7     6    1
     2     7     8    1
     3     9     8    1
     4     9    10    1
     5    10    11    1
     6    11    12    1
     7    12    13    1
     8    12    14    2
     9    14    15    1
    10    15     1    1
    11     1     2   ar
    12     2     3   ar
    13     3    20    1
    14    20    21   am
    15    21    22    2
    16    21    24    1
    17    24    25   ar
    18    25    26   ar
    19    26    27   ar
    20    27    30    1
    21    30    31    1
    22    31    32    1
    23    31    33    1
    24    27    28   ar
    25    28    29   ar
    26     3     4   ar
    27     4     5   ar
    28    15    16    1
    29    16    17    1
    30    17     7    1
    31    15     9    1
    32     5     1   ar
    33    29    24   ar
    34    13    18    1
    35    13    19    1
    36    20    23    1
@<TRIPOS>MOLECULE
*****
 33 36 0 0 0
SMALL
GASTEIGER

@<TRIPOS>ATOM
      1 C         142.7162  142.5314  164.7090 C.ar    1  UNL1        0.1122
      2 N         141.9025  143.1261  163.5980 N.ar    1  UNL1       -0.2259
      3 C         142.8262  143.9153  162.7180 C.ar    1  UNL1        0.1412
      4 C         144.2107  143.8083  163.2853 C.ar    1  UNL1        0.0710
      5 S         144.1427  142.9531  164.5157 S.2     1  UNL1       -0.0670
      6 C         143.6620  142.2805  170.0280 C.3     1  UNL1        0.0320
      7 C         143.1730  142.0760  168.6248 C.3     1  UNL1        0.1155
      8 C         142.1627  141.0070  168.3310 C.3     1  UNL1        0.0328
      9 C         141.6736  140.8024  166.9278 C.3     1  UNL1        0.0426
     10 C         140.6632  139.7333  166.6341 C.3     1  UNL1        0.0673
     11 S         140.1742  139.5288  165.2309 S.3     1  UNL1       -0.0807
     12 C         140.6955  140.3933  164.1214 C.2     1  UNL1        0.1483
     13 N         140.2064  140.1888  162.7182 N.pl3   1  UNL1       -0.3380
     14 N         141.7058  141.4624  164.4152 N.2     1  UNL1       -0.2464
     15 C         142.1949  141.6669  165.8184 C.3     1  UNL1        0.1549
     16 C         143.2052  142.7359  166.1122 C.3     1  UNL1        0.1705
     17 O         143.6943  142.9405  167.5154 O.3     1  UNL1       -0.3538
     18 H         139.5433  139.4871  162.5254 H       1  UNL1        0.1442
     19 H         140.5486  140.7562  161.9901 H       1  UNL1        0.1442
     20 N         142.4341  144.6775  161.4871 N.am    1  UNL1       -0.2641
     21 C         142.0292  143.9399  160.2454 C.2     1  UNL1        0.2699
     22 O         142.0163  142.4399  160.2347 O.2     1  UNL1       -0.2681
     23 H         142.4426  145.6619  161.4942 H       1  UNL1        0.1566
     24 C         141.6372  144.7022  159.0145 C.ar    1  UNL1        0.1541
     25 C         140.3109  145.4005  158.9554 C.ar    1  UNL1        0.1258
     26 N         139.9189  146.1628  157.7244 N.ar    1  UNL1       -0.2070
     27 C         140.8530  146.2267  156.5526 C.ar    1  UNL1        0.2490
     28 C         142.1792  145.5283  156.6117 C.ar    1  UNL1        0.1567
     29 N         142.5712  144.7661  157.8426 N.ar    1  UNL1       -0.2328
     30 O         140.4610  146.9889  155.3216 O.3     1  UNL1       -0.4051
     31 C         139.0576  147.4957  155.1685 C.3     1  UNL1        0.5098
     32 F         137.9200  146.5266  155.0401 F       1  UNL1       -0.1549
     33 F         138.7917  148.9718  155.1439 F       1  UNL1       -0.1549
@<TRIPOS>BOND
     1     7     6    1
     2     7     8    1
     3     9     8    1
     4     9    10    1
     5    10    11    1
     6    11    12    1
     7    12    13    1
     8    12    14    2
     9    14    15    1
    10    15     1    1
    11     1     2   ar
    12     2     3   ar
    13     3    20    1
    14    20    21   am
    15    21    22    2
    16    21    24    1
    17    24    25   ar
    18    25    26   ar
    19    26    27   ar
    20    27    30    1
    21    30    31    1
    22    31    32    1
    23    31    33    1
    24    27    28   ar
    25    28    29   ar
    26     3     4   ar
    27     4     5   ar
    28    15    16    1
    29    16    17    1
    30    17     7    1
    31    15     9    1
    32     5     1   ar
    33    29    24   ar
    34    13    18    1
    35    13    19    1
    36    20    23    1
@<TRIPOS>MOLECULE
*****
 33 36 0 0 0
SMALL
GASTEIGER

@<TRIPOS>ATOM
      1 C         140.1966  143.2398  163.9322 C.ar    1  UNL1        0.1122
      2 N         140.4474  143.2404  162.4533 N.ar    1  UNL1       -0.2259
      3 C         139.7156  144.4074  161.8594 C.ar    1  UNL1        0.1412
      4 C         139.0125  145.1281  162.9714 C.ar    1  UNL1        0.0710
      5 S         139.3098  144.4065  164.2524 S.2     1  UNL1       -0.0670
      6 C         138.0738  138.9997  166.5331 C.3     1  UNL1        0.0320
      7 C         138.9617  140.0821  165.9947 C.3     1  UNL1        0.1155
      8 C         140.3907  140.1716  166.4419 C.3     1  UNL1        0.0328
      9 C         141.2786  141.2541  165.9034 C.3     1  UNL1        0.0426
     10 C         142.7077  141.3436  166.3506 C.3     1  UNL1        0.0673
     11 S         143.5956  142.4260  165.8122 S.3     1  UNL1       -0.0807
     12 C         143.0545  143.4189  164.8265 C.2     1  UNL1        0.1483
     13 N         143.9425  144.5013  164.2881 N.pl3   1  UNL1       -0.3380
     14 N         141.6256  143.3293  164.3793 N.2     1  UNL1       -0.2464
     15 C         140.7376  142.2469  164.9178 C.3     1  UNL1        0.1549
     16 C         139.3087  142.1574  164.4706 C.3     1  UNL1        0.1705
     17 O         138.4207  141.0749  165.0090 O.3     1  UNL1       -0.3538
     18 H         144.8804  144.5601  164.5816 H       1  UNL1        0.1442
     19 H         143.5874  145.1530  163.6412 H       1  UNL1        0.1442
     20 N         139.6911  144.7871  160.4085 N.am    1  UNL1       -0.2641
     21 C         140.9773  144.9518  159.6546 C.2     1  UNL1        0.2699
     22 O         142.2881  144.7369  160.3517 O.2     1  UNL1       -0.2681
     23 H         138.8308  144.9281  159.9510 H       1  UNL1        0.1566
     24 C         140.9528  145.3315  158.2037 C.ar    1  UNL1        0.1541
     25 C         142.1110  144.9810  157.3171 C.ar    1  UNL1        0.1258
     26 N         142.0865  145.3607  155.8662 N.ar    1  UNL1       -0.2070
     27 C         140.9040  146.0908  155.3017 C.ar    1  UNL1        0.2490
     28 C         139.7459  146.4412  156.1883 C.ar    1  UNL1        0.1567
     29 N         139.7704  146.0615  157.6393 N.ar    1  UNL1       -0.2328
     30 O         140.8796  146.4704  153.8508 O.3     1  UNL1       -0.4051
     31 C         140.6236  147.8935  153.4522 C.3     1  UNL1        0.5098
     32 F         139.3593  148.5769  153.8818 F       1  UNL1       -0.1549
     33 F         141.6318  148.6334  152.6239 F       1  UNL1       -0.1549
@<TRIPOS>BOND
     1     7     6    1
     2     7     8    1
     3     9     8    1
     4     9    10    1
     5    10    11    1
     6    11    12    1
     7    12    13    1
     8    12    14    2
     9    14    15    1
    10    15     1    1
    11     1     2   ar
    12     2     3   ar
    13     3    20    1
    14    20    21   am
    15    21    22    2
    16    21    24    1
    17    24    25   ar
    18    25    26   ar
    19    26    27   ar
    20    27    30    1
    21    30    31    1
    22    31    32    1
    23    31    33    1
    24    27    28   ar
    25    28    29   ar
    26     3     4   ar
    27     4     5   ar
    28    15    16    1
    29    16    17    1
    30    17     7    1
    31    15     9    1
    32     5     1   ar
    33    29    24   ar
    34    13    18    1
    35    13    19    1
    36    20    23    1
@<TRIPOS>MOLECULE
*****
 33 36 0 0 0
SMALL
GASTEIGER

@<TRIPOS>ATOM
      1 C         141.7514  141.3129  162.7024 C.ar    1  UNL1        0.1122
      2 N         141.3949  140.8047  161.3369 N.ar    1  UNL1       -0.2259
      3 C         141.6434  139.3255  161.3133 C.ar    1  UNL1        0.1412
      4 C         142.1534  138.9196  162.6643 C.ar    1  UNL1        0.0710
      5 S         142.2202  140.1478  163.5228 S.2     1  UNL1       -0.0670
      6 C         137.7998  144.2865  164.8916 C.3     1  UNL1        0.0320
      7 C         139.0851  143.7697  164.3165 C.3     1  UNL1        0.1155
      8 C         140.2750  144.6762  164.2051 C.3     1  UNL1        0.0328
      9 C         141.5604  144.1594  163.6300 C.3     1  UNL1        0.0426
     10 C         142.7503  145.0660  163.5187 C.3     1  UNL1        0.0673
     11 S         144.0356  144.5492  162.9436 S.3     1  UNL1       -0.0807
     12 C         144.1311  143.1259  162.4798 C.2     1  UNL1        0.1483
     13 N         145.4165  142.6091  161.9046 N.pl3   1  UNL1       -0.3380
     14 N         142.9413  142.2194  162.5911 N.2     1  UNL1       -0.2464
     15 C         141.6559  142.7362  163.1662 C.3     1  UNL1        0.1549
     16 C         140.4660  141.8297  163.2776 C.3     1  UNL1        0.1705
     17 O         139.1807  142.3464  163.8527 O.3     1  UNL1       -0.3538
     18 H         146.1974  143.2041  161.8316 H       1  UNL1        0.1442
     19 H         145.4792  141.6750  161.6002 H       1  UNL1        0.1442
     20 N         141.4209  138.4127  160.1440 N.am    1  UNL1       -0.2641
     21 C         142.4242  138.3625  159.0301 C.2     1  UNL1        0.2699
     22 O         143.6501  139.2253  159.0855 O.2     1  UNL1       -0.2681
     23 H         140.6163  137.8465  160.1077 H       1  UNL1        0.1566
     24 C         142.2017  137.4497  157.8609 C.ar    1  UNL1        0.1541
     25 C         140.9226  137.5278  157.0812 C.ar    1  UNL1        0.1258
     26 N         140.7001  136.6149  155.9119 N.ar    1  UNL1       -0.2070
     27 C         141.7566  135.6240  155.5223 C.ar    1  UNL1        0.2490
     28 C         143.0356  135.5460  156.3020 C.ar    1  UNL1        0.1567
     29 N         143.2581  136.4588  157.4713 N.ar    1  UNL1       -0.2328
     30 O         141.5341  134.7112  154.3531 O.3     1  UNL1       -0.4051
     31 C         141.7961  133.2406  154.4892 C.3     1  UNL1        0.5098
     32 F         140.7917  132.3598  155.1712 F       1  UNL1       -0.1549
     33 F         143.0627  132.6508  153.9433 F       1  UNL1       -0.1549
@<TRIPOS>BOND
     1     7     6    1
     2     7     8    1
     3     9     8    1
     4     9    10    1
     5    10    11    1
     6    11    12    1
     7    12    13    1
     8    12    14    2
     9    14    15    1
    10    15     1    1
    11     1     2   ar
    12     2     3   ar
    13     3    20    1
    14    20    21   am
    15    21    22    2
    16    21    24    1
    17    24    25   ar
    18    25    26   ar
    19    26    27   ar
    20    27    30    1
    21    30    31    1
    22    31    32    1
    23    31    33    1
    24    27    28   ar
    25    28    29   ar
    26     3     4   ar
    27     4     5   ar
    28    15    16    1
    29    16    17    1
    30    17     7    1
    31    15     9    1
    32     5     1   ar
    33    29    24   ar
    34    13    18    1
    35    13    19    1
    36    20    23    1
@<TRIPOS>MOLECULE
*****
 33 36 0 0 0
SMALL
GASTEIGER

@<TRIPOS>ATOM
      1 C         141.8336  139.7518  166.0294 C.ar    1  UNL1        0.1122
      2 N         141.9351  140.5494  164.7630 N.ar    1  UNL1       -0.2259
      3 C         143.1948  140.1418  164.0581 C.ar    1  UNL1        0.1412
      4 C         143.8720  139.0922  164.8888 C.ar    1  UNL1        0.0710
      5 S         143.0308  138.8512  166.1070 S.2     1  UNL1       -0.0670
      6 C         141.4520  141.8665  170.9925 C.3     1  UNL1        0.0320
      7 C         141.2110  141.1908  169.6751 C.3     1  UNL1        0.1155
      8 C         139.8656  140.6027  169.3689 C.3     1  UNL1        0.0328
      9 C         139.6246  139.9270  168.0516 C.3     1  UNL1        0.0426
     10 C         138.2791  139.3388  167.7453 C.3     1  UNL1        0.0673
     11 S         138.0382  138.6631  166.4280 S.3     1  UNL1       -0.0807
     12 C         139.1428  138.5755  165.4169 C.2     1  UNL1        0.1483
     13 N         138.9018  137.8998  164.0996 N.pl3   1  UNL1       -0.3380
     14 N         140.4882  139.1637  165.7231 N.2     1  UNL1       -0.2464
     15 C         140.7291  139.8394  167.0405 C.3     1  UNL1        0.1549
     16 C         142.0746  140.4275  167.3467 C.3     1  UNL1        0.1705
     17 O         142.3155  141.1032  168.6640 O.3     1  UNL1       -0.3538
     18 H         138.0187  137.5138  163.8986 H       1  UNL1        0.1442
     19 H         139.6268  137.8423  163.4359 H       1  UNL1        0.1442
     20 N         143.6904  140.6878  162.7518 N.am    1  UNL1       -0.2641
     21 C         143.2689  140.0470  161.4628 C.2     1  UNL1        0.2699
     22 O         142.3518  138.8600  161.4801 O.2     1  UNL1       -0.2681
     23 H         144.2923  141.4668  162.7405 H       1  UNL1        0.1566
     24 C         143.7645  140.5930  160.1566 C.ar    1  UNL1        0.1541
     25 C         144.2110  142.0219  160.0620 C.ar    1  UNL1        0.1258
     26 N         144.7065  142.5679  158.7558 N.ar    1  UNL1       -0.2070
     27 C         144.7557  141.6851  157.5442 C.ar    1  UNL1        0.2490
     28 C         144.3092  140.2562  157.6388 C.ar    1  UNL1        0.1567
     29 N         143.8136  139.7102  158.9450 N.ar    1  UNL1       -0.2328
     30 O         145.2512  142.2311  156.2379 O.3     1  UNL1       -0.4051
     31 C         146.7226  142.2640  155.9487 C.3     1  UNL1        0.5098
     32 F         147.5892  143.3090  156.5867 F       1  UNL1       -0.1549
     33 F         147.3275  141.2520  155.0214 F       1  UNL1       -0.1549
@<TRIPOS>BOND
     1     7     6    1
     2     7     8    1
     3     9     8    1
     4     9    10    1
     5    10    11    1
     6    11    12    1
     7    12    13    1
     8    12    14    2
     9    14    15    1
    10    15     1    1
    11     1     2   ar
    12     2     3   ar
    13     3    20    1
    14    20    21   am
    15    21    22    2
    16    21    24    1
    17    24    25   ar
    18    25    26   ar
    19    26    27   ar
    20    27    30    1
    21    30    31    1
    22    31    32    1
    23    31    33    1
    24    27    28   ar
    25    28    29   ar
    26     3     4   ar
    27     4     5   ar
    28    15    16    1
    29    16    17    1
    30    17     7    1
    31    15     9    1
    32     5     1   ar
    33    29    24   ar
    34    13    18    1
    35    13    19    1
    36    20    23    1
@<TRIPOS>MOLECULE
*****
 33 36 0 0 0
SMALL
GASTEIGER

@<TRIPOS>ATOM
      1 C         142.9609  135.5014  155.6909 C.ar    1  UNL1        0.1122
      2 N         141.7782  136.1456  156.3514 N.ar    1  UNL1       -0.2259
      3 C         142.1082  137.5900  156.5862 C.ar    1  UNL1        0.1412
      4 C         143.4948  137.8384  156.0708 C.ar    1  UNL1        0.0710
      5 S         144.0218  136.5476  155.5175 S.2     1  UNL1       -0.0670
      6 C         144.9828  131.0621  158.0262 C.3     1  UNL1        0.0320
      7 C         144.3433  132.0625  157.1097 C.3     1  UNL1        0.1155
      8 C         143.8074  131.6252  155.7787 C.3     1  UNL1        0.0328
      9 C         143.1680  132.6257  154.8621 C.3     1  UNL1        0.0426
     10 C         142.6321  132.1882  153.5311 C.3     1  UNL1        0.0673
     11 S         141.9927  133.1887  152.6145 S.3     1  UNL1       -0.0807
     12 C         141.8891  134.6266  153.0290 C.2     1  UNL1        0.1483
     13 N         141.2497  135.6271  152.1124 N.pl3   1  UNL1       -0.3380
     14 N         142.4250  135.0640  154.3599 N.2     1  UNL1       -0.2464
     15 C         143.0644  134.0635  155.2765 C.3     1  UNL1        0.1549
     16 C         143.6003  134.5009  156.6074 C.3     1  UNL1        0.1705
     17 O         144.2398  133.5004  157.5240 O.3     1  UNL1       -0.3538
     18 H         140.8979  135.3401  151.2388 H       1  UNL1        0.1442
     19 H         141.1817  136.5709  152.3844 H       1  UNL1        0.1442
     20 N         141.2094  138.6073  157.2244 N.am    1  UNL1       -0.2641
     21 C         141.2801  138.8480  158.7032 C.2     1  UNL1        0.2699
     22 O         142.2497  138.0713  159.5439 O.2     1  UNL1       -0.2681
     23 H         140.5730  139.1170  156.6726 H       1  UNL1        0.1566
     24 C         140.3813  139.8652  159.3413 C.ar    1  UNL1        0.1541
     25 C         140.7991  141.3048  159.3980 C.ar    1  UNL1        0.1258
     26 N         139.9003  142.3221  160.0361 N.ar    1  UNL1       -0.2070
     27 C         138.5837  141.8999  160.6176 C.ar    1  UNL1        0.2490
     28 C         138.1659  140.4604  160.5610 C.ar    1  UNL1        0.1567
     29 N         139.0647  139.4431  159.9228 N.ar    1  UNL1       -0.2328
     30 O         137.6849  142.9172  161.2558 O.3     1  UNL1       -0.4051
     31 C         137.7080  143.1105  162.7430 C.3     1  UNL1        0.5098
     32 F         138.1250  141.9825  163.6395 F       1  UNL1       -0.1549
     33 F         137.3141  144.4317  163.3338 F       1  UNL1       -0.1549
@<TRIPOS>BOND
     1     7     6    1
     2     7     8    1
     3     9     8    1
     4     9    10    1
     5    10    11    1
     6    11    12    1
     7    12    13    1
     8    12    14    2
     9    14    15    1
    10    15     1    1
    11     1     2   ar
    12     2     3   ar
    13     3    20    1
    14    20    21   am
    15    21    22    2
    16    21    24    1
    17    24    25   ar
    18    25    26   ar
    19    26    27   ar
    20    27    30    1
    21    30    31    1
    22    31    32    1
    23    31    33    1
    24    27    28   ar
    25    28    29   ar
    26     3     4   ar
    27     4     5   ar
    28    15    16    1
    29    16    17    1
    30    17     7    1
    31    15     9    1
    32     5     1   ar
    33    29    24   ar
    34    13    18    1
    35    13    19    1
    36    20    23    1
