@<TRIPOS>MOLECULE
*****
 34 37 0 0 0
SMALL
GASTEIGER

@<TRIPOS>ATOM
      1 N         141.6828  144.0738  161.9095 N.3     1  UNL1       -0.2653
      2 C         141.5209  142.6967  161.3375 C.3     1  UNL1        0.1036
      3 C         142.3077  141.5521  161.9039 C.3     1  UNL1        0.1470
      4 C         143.0945  140.4074  162.4704 C.3     1  UNL1        0.1035
      5 N         144.0431  140.6400  163.6088 N.3     1  UNL1       -0.2673
      6 C         144.2050  142.0173  164.1808 C.3     1  UNL1        0.1035
      7 C         143.4182  143.1618  163.6143 C.3     1  UNL1        0.1470
      8 C         142.6314  144.3064  163.0479 C.3     1  UNL1        0.1036
      9 O         143.2563  141.7847  163.0423 O.3     1  UNL1       -0.3530
     10 C         140.8960  145.2185  161.3430 C.3     1  UNL1        0.1202
     11 C         139.8117  145.8591  162.1577 C.3     1  UNL1        0.2226
     12 O         138.4895  145.1696  162.3211 O.3     1  UNL1       -0.4740
     13 C         138.2386  141.2948  164.5955 C.ar    1  UNL1        0.0686
     14 C         138.9676  142.4653  165.1860 C.ar    1  UNL1        0.0134
     15 C         139.0513  143.7569  164.4278 C.ar    1  UNL1        0.0376
     16 C         138.4059  143.8780  163.0792 C.ar    1  UNL1        0.1387
     17 C         137.6770  142.7076  162.4887 C.ar    1  UNL1        0.0376
     18 C         137.5933  141.4160  163.2468 C.ar    1  UNL1        0.0134
     19 N         138.0714  138.7117  166.1117 N.1     1  UNL1       -0.1908
     20 C         138.1550  140.0032  165.3536 C.1     1  UNL1        0.1004
     21 C         144.8299  139.4954  164.1752 C.3     1  UNL1        0.0913
     22 C         144.4683  138.9273  165.5156 C.3     1  UNL1        0.1087
     23 N         143.0302  138.6779  165.8614 N.3     1  UNL1       -0.1779
     24 H         142.9802  137.7371  166.2520 H       1  UNL1        0.1488
     25 S         142.3221  139.5847  166.8238 S.O2    1  UNL1        0.0624
     26 O         141.5293  140.1673  165.6917 O.2     1  UNL1       -0.1529
     27 O         143.1149  139.0020  167.9560 O.2     1  UNL1       -0.1529
     28 C         141.6140  140.4915  167.7864 C.ar    1  UNL1        0.1492
     29 C         140.3470  140.0388  168.4495 C.ar    1  UNL1        0.0222
     30 C         139.6389  140.9455  169.4120 C.ar    1  UNL1        0.0015
     31 C         140.1979  142.3048  169.7114 C.ar    1  UNL1        0.0024
     32 C         141.4649  142.7575  169.0483 C.ar    1  UNL1        0.0310
     33 C         142.1730  141.8508  168.0858 C.ar    1  UNL1        0.1586
     34 F         143.4400  142.3035  167.4227 F       1  UNL1       -0.2028
@<TRIPOS>BOND
     1    19    20    3
     2    20    13    1
     3    13    14   ar
     4    14    15   ar
     5    15    16   ar
     6    16    12    1
     7    12    11    1
     8    11    10    1
     9    10     1    1
    10     1     2    1
    11     2     3    1
    12     3     4    1
    13     4     5    1
    14     5    21    1
    15    21    22    1
    16    22    23    1
    17    23    25    1
    18    25    26    2
    19    25    27    2
    20    25    28    1
    21    28    29   ar
    22    29    30   ar
    23    30    31   ar
    24    31    32   ar
    25    32    33   ar
    26    33    34    1
    27     5     6    1
    28     6     7    1
    29     7     8    1
    30     7     9    1
    31    16    17   ar
    32    17    18   ar
    33    18    13   ar
    34     8     1    1
    35     9     3    1
    36    33    28   ar
    37    23    24    1
@<TRIPOS>MOLECULE
*****
 34 37 0 0 0
SMALL
GASTEIGER

@<TRIPOS>ATOM
      1 N         139.4865  137.7621  164.3371 N.3     1  UNL1       -0.2653
      2 C         138.8884  137.9446  162.9737 C.3     1  UNL1        0.1036
      3 C         139.7796  138.1604  161.7866 C.3     1  UNL1        0.1470
      4 C         140.6708  138.3763  160.5994 C.3     1  UNL1        0.1035
      5 N         142.1600  138.4097  160.7758 N.3     1  UNL1       -0.2673
      6 C         142.7580  138.2272  162.1393 C.3     1  UNL1        0.1035
      7 C         141.8669  138.0114  163.3264 C.3     1  UNL1        0.1470
      8 C         140.9757  137.7955  164.5135 C.3     1  UNL1        0.1036
      9 O         141.2688  138.1938  161.9630 O.3     1  UNL1       -0.3530
     10 C         138.5953  137.5463  165.5243 C.3     1  UNL1        0.1202
     11 C         138.1251  138.7193  166.3322 C.3     1  UNL1        0.2226
     12 O         139.0555  139.8641  166.6041 O.3     1  UNL1       -0.4740
     13 C         139.1581  143.3920  163.8124 C.ar    1  UNL1        0.0686
     14 C         138.0936  142.3460  163.6605 C.ar    1  UNL1        0.0134
     15 C         138.0594  141.1701  164.5911 C.ar    1  UNL1        0.0376
     16 C         139.0897  141.0400  165.6736 C.ar    1  UNL1        0.1387
     17 C         140.1541  142.0859  165.8254 C.ar    1  UNL1        0.0376
     18 C         140.1884  143.2619  164.8948 C.ar    1  UNL1        0.0134
     19 N         139.2265  145.7438  161.9513 N.1     1  UNL1       -0.1908
     20 C         139.1923  144.5679  162.8818 C.1     1  UNL1        0.1004
     21 C         143.0511  138.6255  159.5887 C.3     1  UNL1        0.0913
     22 C         143.7942  139.9194  159.4340 C.3     1  UNL1        0.1087
     23 N         143.0819  141.2229  159.6430 N.3     1  UNL1       -0.1779
     24 H         142.0827  141.0226  159.6002 H       1  UNL1        0.1488
     25 S         143.3123  142.0105  160.8985 S.O2    1  UNL1        0.0624
     26 O         144.6974  142.3486  160.4323 O.2     1  UNL1       -0.1529
     27 O         141.9273  141.6725  161.3647 O.2     1  UNL1       -0.1529
     28 C         143.5427  142.7982  162.1541 C.ar    1  UNL1        0.1492
     29 C         142.9849  144.1847  162.2827 C.ar    1  UNL1        0.0222
     30 C         143.2152  144.9724  163.5382 C.ar    1  UNL1        0.0015
     31 C         144.0034  144.3736  164.6652 C.ar    1  UNL1        0.0024
     32 C         144.5612  142.9871  164.5367 C.ar    1  UNL1        0.0310
     33 C         144.3309  142.1995  163.2812 C.ar    1  UNL1        0.1586
     34 F         144.8887  140.8130  163.1526 F       1  UNL1       -0.2028
@<TRIPOS>BOND
     1    19    20    3
     2    20    13    1
     3    13    14   ar
     4    14    15   ar
     5    15    16   ar
     6    16    12    1
     7    12    11    1
     8    11    10    1
     9    10     1    1
    10     1     2    1
    11     2     3    1
    12     3     4    1
    13     4     5    1
    14     5    21    1
    15    21    22    1
    16    22    23    1
    17    23    25    1
    18    25    26    2
    19    25    27    2
    20    25    28    1
    21    28    29   ar
    22    29    30   ar
    23    30    31   ar
    24    31    32   ar
    25    32    33   ar
    26    33    34    1
    27     5     6    1
    28     6     7    1
    29     7     8    1
    30     7     9    1
    31    16    17   ar
    32    17    18   ar
    33    18    13   ar
    34     8     1    1
    35     9     3    1
    36    33    28   ar
    37    23    24    1
@<TRIPOS>MOLECULE
*****
 34 37 0 0 0
SMALL
GASTEIGER

@<TRIPOS>ATOM
      1 N         138.9878  139.1359  162.5552 N.3     1  UNL1       -0.2653
      2 C         138.1070  140.3436  162.6797 C.3     1  UNL1        0.1036
      3 C         138.4002  141.5722  161.8707 C.3     1  UNL1        0.1470
      4 C         138.6934  142.8009  161.0617 C.3     1  UNL1        0.1035
      5 N         139.8674  142.8218  160.1282 N.3     1  UNL1       -0.2673
      6 C         140.7482  141.6139  160.0038 C.3     1  UNL1        0.1035
      7 C         140.4550  140.3853  160.8128 C.3     1  UNL1        0.1470
      8 C         140.1617  139.1567  161.6218 C.3     1  UNL1        0.1036
      9 O         139.5742  141.5931  160.9373 O.3     1  UNL1       -0.3530
     10 C         138.6946  137.9072  163.3643 C.3     1  UNL1        0.1202
     11 C         138.9681  137.8973  164.8391 C.3     1  UNL1        0.2226
     12 O         138.1814  138.7887  165.7538 O.3     1  UNL1       -0.4740
     13 C         140.3158  141.6782  168.4639 C.ar    1  UNL1        0.0686
     14 C         139.5634  140.5189  169.0471 C.ar    1  UNL1        0.0134
     15 C         138.8519  139.5558  168.1437 C.ar    1  UNL1        0.0376
     16 C         138.8928  139.7518  166.6571 C.ar    1  UNL1        0.1387
     17 C         139.6452  140.9110  166.0739 C.ar    1  UNL1        0.0376
     18 C         140.3567  141.8742  166.9773 C.ar    1  UNL1        0.0134
     19 N         141.7388  143.6044  170.2706 N.1     1  UNL1       -0.1908
     20 C         141.0273  142.6413  169.3673 C.1     1  UNL1        0.1004
     21 C         140.1606  144.0504  159.3192 C.3     1  UNL1        0.0913
     22 C         141.3601  144.8917  159.6410 C.3     1  UNL1        0.1087
     23 N         141.5549  145.4193  161.0316 N.3     1  UNL1       -0.1779
     24 H         140.6416  145.7365  161.3568 H       1  UNL1        0.1488
     25 S         142.1095  144.5264  162.1016 S.O2    1  UNL1        0.0624
     26 O         143.1894  144.0737  161.1642 O.2     1  UNL1       -0.1529
     27 O         141.0295  144.9790  163.0390 O.2     1  UNL1       -0.1529
     28 C         142.6640  143.6334  163.1718 C.ar    1  UNL1        0.1492
     29 C         142.3092  142.1761  163.1909 C.ar    1  UNL1        0.0222
     30 C         142.8637  141.2832  164.2610 C.ar    1  UNL1        0.0015
     31 C         143.7731  141.8476  165.3120 C.ar    1  UNL1        0.0024
     32 C         144.1279  143.3049  165.2928 C.ar    1  UNL1        0.0310
     33 C         143.5733  144.1978  164.2228 C.ar    1  UNL1        0.1586
     34 F         143.9281  145.6551  164.2036 F       1  UNL1       -0.2028
@<TRIPOS>BOND
     1    19    20    3
     2    20    13    1
     3    13    14   ar
     4    14    15   ar
     5    15    16   ar
     6    16    12    1
     7    12    11    1
     8    11    10    1
     9    10     1    1
    10     1     2    1
    11     2     3    1
    12     3     4    1
    13     4     5    1
    14     5    21    1
    15    21    22    1
    16    22    23    1
    17    23    25    1
    18    25    26    2
    19    25    27    2
    20    25    28    1
    21    28    29   ar
    22    29    30   ar
    23    30    31   ar
    24    31    32   ar
    25    32    33   ar
    26    33    34    1
    27     5     6    1
    28     6     7    1
    29     7     8    1
    30     7     9    1
    31    16    17   ar
    32    17    18   ar
    33    18    13   ar
    34     8     1    1
    35     9     3    1
    36    33    28   ar
    37    23    24    1
@<TRIPOS>MOLECULE
*****
 34 37 0 0 0
SMALL
GASTEIGER

@<TRIPOS>ATOM
      1 N         139.3750  137.6923  164.2807 N.3     1  UNL1       -0.2653
      2 C         138.8274  137.9862  162.9156 C.3     1  UNL1        0.1036
      3 C         139.7627  138.2092  161.7643 C.3     1  UNL1        0.1470
      4 C         140.6981  138.4321  160.6130 C.3     1  UNL1        0.1035
      5 N         142.1811  138.3612  160.8269 N.3     1  UNL1       -0.2673
      6 C         142.7287  138.0673  162.1921 C.3     1  UNL1        0.1035
      7 C         141.7933  137.8443  163.3434 C.3     1  UNL1        0.1470
      8 C         140.8580  137.6214  164.4946 C.3     1  UNL1        0.1036
      9 O         141.2457  138.1382  161.9782 O.3     1  UNL1       -0.3530
     10 C         138.4397  137.4693  165.4320 C.3     1  UNL1        0.1202
     11 C         138.1262  138.5950  166.3725 C.3     1  UNL1        0.2226
     12 O         138.6035  139.9836  166.0658 O.3     1  UNL1       -0.4740
     13 C         142.0971  141.7103  168.3160 C.ar    1  UNL1        0.0686
     14 C         141.7911  142.1855  166.9265 C.ar    1  UNL1        0.0134
     15 C         140.6266  141.6099  166.1764 C.ar    1  UNL1        0.0376
     16 C         139.7680  140.5592  166.8158 C.ar    1  UNL1        0.1387
     17 C         140.0740  140.0840  168.2052 C.ar    1  UNL1        0.0376
     18 C         141.2385  140.6596  168.9554 C.ar    1  UNL1        0.0134
     19 N         144.4261  142.8614  169.8160 N.1     1  UNL1       -0.1908
     20 C         143.2616  142.2859  169.0660 C.1     1  UNL1        0.1004
     21 C         143.1164  138.5841  159.6757 C.3     1  UNL1        0.0913
     22 C         143.8120  139.9039  159.5192 C.3     1  UNL1        0.1087
     23 N         143.0813  141.1777  159.8245 N.3     1  UNL1       -0.1779
     24 H         142.0868  140.9511  159.8365 H       1  UNL1        0.1488
     25 S         143.3709  141.9228  161.0937 S.O2    1  UNL1        0.0624
     26 O         141.9969  141.5961  161.5990 O.2     1  UNL1       -0.1529
     27 O         144.7449  142.2495  160.5884 O.2     1  UNL1       -0.1529
     28 C         143.6606  142.6679  162.3630 C.ar    1  UNL1        0.1492
     29 C         143.1316  144.0585  162.5537 C.ar    1  UNL1        0.0222
     30 C         143.4213  144.8037  163.8228 C.ar    1  UNL1        0.0015
     31 C         144.2399  144.1581  164.9013 C.ar    1  UNL1        0.0024
     32 C         144.7688  142.7675  164.7106 C.ar    1  UNL1        0.0310
     33 C         144.4792  142.0224  163.4414 C.ar    1  UNL1        0.1586
     34 F         145.0081  140.6318  163.2507 F       1  UNL1       -0.2028
@<TRIPOS>BOND
     1    19    20    3
     2    20    13    1
     3    13    14   ar
     4    14    15   ar
     5    15    16   ar
     6    16    12    1
     7    12    11    1
     8    11    10    1
     9    10     1    1
    10     1     2    1
    11     2     3    1
    12     3     4    1
    13     4     5    1
    14     5    21    1
    15    21    22    1
    16    22    23    1
    17    23    25    1
    18    25    26    2
    19    25    27    2
    20    25    28    1
    21    28    29   ar
    22    29    30   ar
    23    30    31   ar
    24    31    32   ar
    25    32    33   ar
    26    33    34    1
    27     5     6    1
    28     6     7    1
    29     7     8    1
    30     7     9    1
    31    16    17   ar
    32    17    18   ar
    33    18    13   ar
    34     8     1    1
    35     9     3    1
    36    33    28   ar
    37    23    24    1
@<TRIPOS>MOLECULE
*****
 34 37 0 0 0
SMALL
GASTEIGER

@<TRIPOS>ATOM
      1 N         140.8172  144.1360  160.2104 N.3     1  UNL1       -0.2653
      2 C         139.9639  143.2032  159.4033 C.3     1  UNL1        0.1036
      3 C         140.3805  141.7738  159.2210 C.3     1  UNL1        0.1470
      4 C         140.7971  140.3443  159.0388 C.3     1  UNL1        0.1035
      5 N         142.0671  139.8478  159.6637 N.3     1  UNL1       -0.2673
      6 C         142.9205  140.7807  160.4709 C.3     1  UNL1        0.1035
      7 C         142.5039  142.2101  160.6531 C.3     1  UNL1        0.1470
      8 C         142.0873  143.6394  160.8354 C.3     1  UNL1        0.1036
      9 O         141.6505  141.2773  159.8460 O.3     1  UNL1       -0.3530
     10 C         140.4006  145.5655  160.3927 C.3     1  UNL1        0.1202
     11 C         139.8496  146.0239  161.7104 C.3     1  UNL1        0.2226
     12 O         138.5212  145.5147  162.1859 O.3     1  UNL1       -0.4740
     13 C         138.2871  141.6703  164.5130 C.ar    1  UNL1        0.0686
     14 C         137.6790  141.7568  163.1445 C.ar    1  UNL1        0.0134
     15 C         137.7570  143.0383  162.3688 C.ar    1  UNL1        0.0376
     16 C         138.4432  144.2332  162.9616 C.ar    1  UNL1        0.1387
     17 C         139.0512  144.1467  164.3300 C.ar    1  UNL1        0.0376
     18 C         138.9732  142.8652  165.1058 C.ar    1  UNL1        0.0134
     19 N         138.1310  139.1074  166.0644 N.1     1  UNL1       -0.1908
     20 C         138.2091  140.3888  165.2887 C.1     1  UNL1        0.1004
     21 C         142.4838  138.4184  159.4814 C.3     1  UNL1        0.0913
     22 C         142.9985  137.6323  160.6507 C.3     1  UNL1        0.1087
     23 N         142.0848  137.3033  161.7939 N.3     1  UNL1       -0.1779
     24 H         142.2271  136.3167  162.0100 H       1  UNL1        0.1488
     25 S         142.2039  138.0517  163.0884 S.O2    1  UNL1        0.0624
     26 O         140.7757  137.7239  163.4092 O.2     1  UNL1       -0.1529
     27 O         143.6320  138.3795  162.7676 O.2     1  UNL1       -0.1529
     28 C         142.3230  138.8001  164.3829 C.ar    1  UNL1        0.1492
     29 C         142.9471  138.1396  165.5764 C.ar    1  UNL1        0.0222
     30 C         143.0662  138.8880  166.8709 C.ar    1  UNL1        0.0015
     31 C         142.5612  140.2967  166.9719 C.ar    1  UNL1        0.0024
     32 C         141.9371  140.9572  165.7785 C.ar    1  UNL1        0.0310
     33 C         141.8180  140.2089  164.4840 C.ar    1  UNL1        0.1586
     34 F         141.1939  140.8693  163.2905 F       1  UNL1       -0.2028
@<TRIPOS>BOND
     1    19    20    3
     2    20    13    1
     3    13    14   ar
     4    14    15   ar
     5    15    16   ar
     6    16    12    1
     7    12    11    1
     8    11    10    1
     9    10     1    1
    10     1     2    1
    11     2     3    1
    12     3     4    1
    13     4     5    1
    14     5    21    1
    15    21    22    1
    16    22    23    1
    17    23    25    1
    18    25    26    2
    19    25    27    2
    20    25    28    1
    21    28    29   ar
    22    29    30   ar
    23    30    31   ar
    24    31    32   ar
    25    32    33   ar
    26    33    34    1
    27     5     6    1
    28     6     7    1
    29     7     8    1
    30     7     9    1
    31    16    17   ar
    32    17    18   ar
    33    18    13   ar
    34     8     1    1
    35     9     3    1
    36    33    28   ar
    37    23    24    1
@<TRIPOS>MOLECULE
*****
 34 37 0 0 0
SMALL
GASTEIGER

@<TRIPOS>ATOM
      1 N         144.1614  139.3695  161.4882 N.3     1  UNL1       -0.2653
      2 C         143.8132  140.4368  160.4934 C.3     1  UNL1        0.1036
      3 C         143.7806  141.8753  160.9173 C.3     1  UNL1        0.1470
      4 C         143.7480  143.3138  161.3412 C.3     1  UNL1        0.1035
      5 N         144.0636  143.6850  162.7599 N.3     1  UNL1       -0.2673
      6 C         144.4118  142.6176  163.7547 C.3     1  UNL1        0.1035
      7 C         144.4444  141.1792  163.3308 C.3     1  UNL1        0.1470
      8 C         144.4770  139.7407  162.9068 C.3     1  UNL1        0.1036
      9 O         144.0962  142.2464  162.3360 O.3     1  UNL1       -0.3530
     10 C         144.1940  137.9310  161.0643 C.3     1  UNL1        0.1202
     11 C         142.9166  137.2171  160.7348 C.3     1  UNL1        0.2226
     12 O         141.6100  137.9515  160.7946 O.3     1  UNL1       -0.4740
     13 C         139.1227  137.8168  164.5422 C.ar    1  UNL1        0.0686
     14 C         138.4945  138.2132  163.2390 C.ar    1  UNL1        0.0134
     15 C         139.3237  138.2581  161.9898 C.ar    1  UNL1        0.0376
     16 C         140.7809  137.9066  162.0438 C.ar    1  UNL1        0.1387
     17 C         141.4090  137.5102  163.3469 C.ar    1  UNL1        0.0376
     18 C         140.5799  137.4653  164.5962 C.ar    1  UNL1        0.0134
     19 N         137.4644  137.7270  167.0406 N.1     1  UNL1       -0.1908
     20 C         138.2935  137.7719  165.7914 C.1     1  UNL1        0.1004
     21 C         144.0310  145.1234  163.1838 C.3     1  UNL1        0.0913
     22 C         142.8986  145.6317  164.0261 C.3     1  UNL1        0.1087
     23 N         141.5726  145.9371  163.3948 N.3     1  UNL1       -0.1779
     24 H         141.7615  146.2087  162.4300 H       1  UNL1        0.1488
     25 S         140.5045  144.8851  163.3475 S.O2    1  UNL1        0.0624
     26 O         141.1773  144.1514  164.4694 O.2     1  UNL1       -0.1529
     27 O         139.8316  145.6189  162.2255 O.2     1  UNL1       -0.1529
     28 C         139.4362  143.8331  163.3000 C.ar    1  UNL1        0.1492
     29 C         139.3859  142.8665  162.1541 C.ar    1  UNL1        0.0222
     30 C         138.3177  141.8145  162.1066 C.ar    1  UNL1        0.0015
     31 C         137.2999  141.7291  163.2051 C.ar    1  UNL1        0.0024
     32 C         137.3502  142.6957  164.3510 C.ar    1  UNL1        0.0310
     33 C         138.4184  143.7477  164.3985 C.ar    1  UNL1        0.1586
     34 F         138.4687  144.7143  165.5444 F       1  UNL1       -0.2028
@<TRIPOS>BOND
     1    19    20    3
     2    20    13    1
     3    13    14   ar
     4    14    15   ar
     5    15    16   ar
     6    16    12    1
     7    12    11    1
     8    11    10    1
     9    10     1    1
    10     1     2    1
    11     2     3    1
    12     3     4    1
    13     4     5    1
    14     5    21    1
    15    21    22    1
    16    22    23    1
    17    23    25    1
    18    25    26    2
    19    25    27    2
    20    25    28    1
    21    28    29   ar
    22    29    30   ar
    23    30    31   ar
    24    31    32   ar
    25    32    33   ar
    26    33    34    1
    27     5     6    1
    28     6     7    1
    29     7     8    1
    30     7     9    1
    31    16    17   ar
    32    17    18   ar
    33    18    13   ar
    34     8     1    1
    35     9     3    1
    36    33    28   ar
    37    23    24    1
@<TRIPOS>MOLECULE
*****
 34 37 0 0 0
SMALL
GASTEIGER

@<TRIPOS>ATOM
      1 N         140.1264  140.6706  166.8412 N.3     1  UNL1       -0.2653
      2 C         141.5881  140.5532  167.1566 C.3     1  UNL1        0.1036
      3 C         142.5698  141.4943  166.5237 C.3     1  UNL1        0.1470
      4 C         143.5517  142.4353  165.8908 C.3     1  UNL1        0.1035
      5 N         143.0717  143.4938  164.9424 N.3     1  UNL1       -0.2673
      6 C         141.6098  143.6111  164.6270 C.3     1  UNL1        0.1035
      7 C         140.6281  142.6701  165.2599 C.3     1  UNL1        0.1470
      8 C         139.6464  141.7290  165.8928 C.3     1  UNL1        0.1036
      9 O         142.0898  142.5527  165.5754 O.3     1  UNL1       -0.3530
     10 C         139.1446  139.7295  167.4741 C.3     1  UNL1        0.1202
     11 C         138.3053  138.8315  166.6144 C.3     1  UNL1        0.2226
     12 O         138.9325  138.0819  165.4765 O.3     1  UNL1       -0.4740
     13 C         138.2294  139.4235  161.2391 C.ar    1  UNL1        0.0686
     14 C         137.7917  140.2900  162.3826 C.ar    1  UNL1        0.0134
     15 C         138.0260  139.8428  163.7950 C.ar    1  UNL1        0.0376
     16 C         138.6981  138.5291  164.0640 C.ar    1  UNL1        0.1387
     17 C         139.1359  137.6626  162.9206 C.ar    1  UNL1        0.0376
     18 C         138.9015  138.1097  161.5081 C.ar    1  UNL1        0.0134
     19 N         137.7606  140.3179  158.4142 N.1     1  UNL1       -0.1908
     20 C         137.9950  139.8707  159.8266 C.1     1  UNL1        0.1004
     21 C         144.0534  144.4348  164.3095 C.3     1  UNL1        0.0913
     22 C         144.1406  144.5344  162.8153 C.3     1  UNL1        0.1087
     23 N         144.8782  143.4866  162.0356 N.3     1  UNL1       -0.1779
     24 H         145.8107  143.4183  162.4431 H       1  UNL1        0.1488
     25 S         144.3365  142.0900  161.9573 S.O2    1  UNL1        0.0624
     26 O         143.0397  142.6229  161.4241 O.2     1  UNL1       -0.1529
     27 O         145.6333  141.5571  162.4905 O.2     1  UNL1       -0.1529
     28 C         143.7948  140.6934  161.8789 C.ar    1  UNL1        0.1492
     29 C         143.2798  140.0183  163.1154 C.ar    1  UNL1        0.0222
     30 C         142.7381  138.6217  163.0372 C.ar    1  UNL1        0.0015
     31 C         142.7116  137.9002  161.7224 C.ar    1  UNL1        0.0024
     32 C         143.2267  138.5753  160.4859 C.ar    1  UNL1        0.0310
     33 C         143.7683  139.9719  160.5641 C.ar    1  UNL1        0.1586
     34 F         144.2834  140.6470  159.3276 F       1  UNL1       -0.2028
@<TRIPOS>BOND
     1    19    20    3
     2    20    13    1
     3    13    14   ar
     4    14    15   ar
     5    15    16   ar
     6    16    12    1
     7    12    11    1
     8    11    10    1
     9    10     1    1
    10     1     2    1
    11     2     3    1
    12     3     4    1
    13     4     5    1
    14     5    21    1
    15    21    22    1
    16    22    23    1
    17    23    25    1
    18    25    26    2
    19    25    27    2
    20    25    28    1
    21    28    29   ar
    22    29    30   ar
    23    30    31   ar
    24    31    32   ar
    25    32    33   ar
    26    33    34    1
    27     5     6    1
    28     6     7    1
    29     7     8    1
    30     7     9    1
    31    16    17   ar
    32    17    18   ar
    33    18    13   ar
    34     8     1    1
    35     9     3    1
    36    33    28   ar
    37    23    24    1
@<TRIPOS>MOLECULE
*****
 34 37 0 0 0
SMALL
GASTEIGER

@<TRIPOS>ATOM
      1 N         142.5615  140.4016  159.6812 N.3     1  UNL1       -0.2653
      2 C         143.4366  141.4792  160.2494 C.3     1  UNL1        0.1036
      3 C         142.8255  142.7507  160.7589 C.3     1  UNL1        0.1470
      4 C         142.2145  144.0224  161.2685 C.3     1  UNL1        0.1035
      5 N         140.7282  144.2164  161.2098 N.3     1  UNL1       -0.2673
      6 C         139.8530  143.1387  160.6415 C.3     1  UNL1        0.1035
      7 C         140.4641  141.8672  160.1320 C.3     1  UNL1        0.1470
      8 C         141.0752  140.5956  159.6225 C.3     1  UNL1        0.1036
      9 O         141.3393  142.9447  160.7002 O.3     1  UNL1       -0.3530
     10 C         143.1725  139.1299  159.1717 C.3     1  UNL1        0.1202
     11 C         143.2736  137.9336  160.0708 C.3     1  UNL1        0.2226
     12 O         142.1704  137.6287  161.0404 O.3     1  UNL1       -0.4740
     13 C         142.6849  138.5848  165.4074 C.ar    1  UNL1        0.0686
     14 C         143.6726  139.1034  164.4046 C.ar    1  UNL1        0.0134
     15 C         143.5011  138.7847  162.9490 C.ar    1  UNL1        0.0376
     16 C         142.3419  137.9474  162.4960 C.ar    1  UNL1        0.1387
     17 C         141.3542  137.4288  163.4987 C.ar    1  UNL1        0.0376
     18 C         141.5257  137.7475  164.9545 C.ar    1  UNL1        0.0134
     19 N         143.0279  139.2222  168.3187 N.1     1  UNL1       -0.1908
     20 C         142.8564  138.9035  166.8631 C.1     1  UNL1        0.1004
     21 C         140.1171  145.4880  161.7193 C.3     1  UNL1        0.0913
     22 C         139.3805  145.4951  163.0260 C.3     1  UNL1        0.1087
     23 N         140.0610  145.0142  164.2732 N.3     1  UNL1       -0.1779
     24 H         139.8360  145.6843  165.0085 H       1  UNL1        0.1488
     25 S         139.7508  143.6519  164.8191 S.O2    1  UNL1        0.0624
     26 O         141.1498  143.2089  164.5086 O.2     1  UNL1       -0.1529
     27 O         138.3518  144.0949  165.1295 O.2     1  UNL1       -0.1529
     28 C         139.4405  142.2896  165.3650 C.ar    1  UNL1        0.1492
     29 C         138.6049  141.3339  164.5659 C.ar    1  UNL1        0.0222
     30 C         138.2946  139.9717  165.1117 C.ar    1  UNL1        0.0015
     31 C         138.8199  139.5651  166.4566 C.ar    1  UNL1        0.0024
     32 C         139.6555  140.5208  167.2556 C.ar    1  UNL1        0.0310
     33 C         139.9658  141.8830  166.7098 C.ar    1  UNL1        0.1586
     34 F         140.8014  142.8387  167.5089 F       1  UNL1       -0.2028
@<TRIPOS>BOND
     1    19    20    3
     2    20    13    1
     3    13    14   ar
     4    14    15   ar
     5    15    16   ar
     6    16    12    1
     7    12    11    1
     8    11    10    1
     9    10     1    1
    10     1     2    1
    11     2     3    1
    12     3     4    1
    13     4     5    1
    14     5    21    1
    15    21    22    1
    16    22    23    1
    17    23    25    1
    18    25    26    2
    19    25    27    2
    20    25    28    1
    21    28    29   ar
    22    29    30   ar
    23    30    31   ar
    24    31    32   ar
    25    32    33   ar
    26    33    34    1
    27     5     6    1
    28     6     7    1
    29     7     8    1
    30     7     9    1
    31    16    17   ar
    32    17    18   ar
    33    18    13   ar
    34     8     1    1
    35     9     3    1
    36    33    28   ar
    37    23    24    1
@<TRIPOS>MOLECULE
*****
 34 37 0 0 0
SMALL
GASTEIGER

@<TRIPOS>ATOM
      1 N         139.0326  139.0863  160.8784 N.3     1  UNL1       -0.2653
      2 C         137.9935  140.1161  160.5472 C.3     1  UNL1        0.1036
      3 C         138.3862  141.3747  159.8318 C.3     1  UNL1        0.1470
      4 C         138.7788  142.6333  159.1164 C.3     1  UNL1        0.1035
      5 N         140.2106  142.8620  158.7321 N.3     1  UNL1       -0.2673
      6 C         141.2497  141.8321  159.0632 C.3     1  UNL1        0.1035
      7 C         140.8571  140.5735  159.7786 C.3     1  UNL1        0.1470
      8 C         140.4644  139.3150  160.4941 C.3     1  UNL1        0.1036
      9 O         139.8180  141.6034  159.4475 O.3     1  UNL1       -0.3530
     10 C         138.6399  137.8277  161.5938 C.3     1  UNL1        0.1202
     11 C         138.8099  137.7260  163.0807 C.3     1  UNL1        0.2226
     12 O         139.9955  138.3607  163.7452 O.3     1  UNL1       -0.4740
     13 C         139.6241  140.0025  167.9185 C.ar    1  UNL1        0.0686
     14 C         140.9088  140.1630  167.1609 C.ar    1  UNL1        0.0134
     15 C         141.0326  139.6158  165.7698 C.ar    1  UNL1        0.0376
     16 C         139.8717  138.9079  165.1363 C.ar    1  UNL1        0.1387
     17 C         138.5871  138.7474  165.8938 C.ar    1  UNL1        0.0376
     18 C         138.4633  139.2946  167.2850 C.ar    1  UNL1        0.0134
     19 N         139.3766  141.0970  170.7007 N.1     1  UNL1       -0.1908
     20 C         139.5004  140.5497  169.3096 C.1     1  UNL1        0.1004
     21 C         140.6033  144.1205  158.0166 C.3     1  UNL1        0.0913
     22 C         140.8649  145.3755  158.7955 C.3     1  UNL1        0.1087
     23 N         141.4873  145.2967  160.1580 N.3     1  UNL1       -0.1779
     24 H         141.9338  146.1974  160.3303 H       1  UNL1        0.1488
     25 S         140.6347  144.9998  161.3558 S.O2    1  UNL1        0.0624
     26 O         141.5930  143.9231  161.7710 O.2     1  UNL1       -0.1529
     27 O         139.6765  146.0765  160.9407 O.2     1  UNL1       -0.1529
     28 C         139.7821  144.7030  162.5538 C.ar    1  UNL1        0.1492
     29 C         138.4061  144.1341  162.3725 C.ar    1  UNL1        0.0222
     30 C         137.5534  143.8373  163.5704 C.ar    1  UNL1        0.0015
     31 C         138.0769  144.1093  164.9495 C.ar    1  UNL1        0.0024
     32 C         139.4530  144.6781  165.1307 C.ar    1  UNL1        0.0310
     33 C         140.3056  144.9750  163.9329 C.ar    1  UNL1        0.1586
     34 F         141.6817  145.5438  164.1141 F       1  UNL1       -0.2028
@<TRIPOS>BOND
     1    19    20    3
     2    20    13    1
     3    13    14   ar
     4    14    15   ar
     5    15    16   ar
     6    16    12    1
     7    12    11    1
     8    11    10    1
     9    10     1    1
    10     1     2    1
    11     2     3    1
    12     3     4    1
    13     4     5    1
    14     5    21    1
    15    21    22    1
    16    22    23    1
    17    23    25    1
    18    25    26    2
    19    25    27    2
    20    25    28    1
    21    28    29   ar
    22    29    30   ar
    23    30    31   ar
    24    31    32   ar
    25    32    33   ar
    26    33    34    1
    27     5     6    1
    28     6     7    1
    29     7     8    1
    30     7     9    1
    31    16    17   ar
    32    17    18   ar
    33    18    13   ar
    34     8     1    1
    35     9     3    1
    36    33    28   ar
    37    23    24    1
