@<TRIPOS>MOLECULE
*****
 34 38 0 0 0
SMALL
GASTEIGER

@<TRIPOS>ATOM
      1 C         140.2260  140.6469  170.5182 C.3     1  UNL1        0.0438
      2 C         140.6577  141.2437  169.2114 C.3     1  UNL1        0.1398
      3 C         141.5190  142.0304  170.1544 C.3     1  UNL1        0.0438
      4 O         141.3887  142.1137  168.2322 O.3     1  UNL1       -0.4826
      5 C         141.1083  141.9897  166.7639 C.ar    1  UNL1        0.1361
      6 C         141.8392  142.8597  165.7847 C.ar    1  UNL1        0.0379
      7 C         141.5588  142.7357  164.3164 C.ar    1  UNL1        0.0178
      8 C         140.5475  141.7416  163.8272 C.ar    1  UNL1        0.0505
      9 C         139.8166  140.8716  164.8064 C.ar    1  UNL1        0.0153
     10 C         140.0970  140.9957  166.2748 C.ar    1  UNL1        0.0369
     11 C         139.3661  140.1257  167.2540 C.3     1  UNL1        0.1581
     12 C         138.9821  139.8898  165.8232 C.3     1  UNL1        0.2351
     13 O         137.9399  138.8113  165.7948 O.2     1  UNL1       -0.4478
     14 C         137.6798  138.3806  167.2079 C.2     1  UNL1        0.2770
     15 N         136.7088  137.3233  167.6427 N.pl3   1  UNL1       -0.3133
     16 N         138.5613  139.1929  168.1097 N.2     1  UNL1       -0.2202
     17 C         139.6465  140.2497  168.7223 C.3     1  UNL1        0.1141
     18 C         139.8504  140.4924  168.4491 C.3     1  UNL1        0.1501
     19 O         139.6361  140.2372  168.7363 O.3     1  UNL1       -0.3532
     20 C         139.8504  140.4924  168.4491 C.3     1  UNL1        0.1501
     21 H         136.1719  136.8423  166.9722 H       1  UNL1        0.1466
     22 H         136.6084  137.1103  168.5987 H       1  UNL1        0.1466
     23 N         140.2672  141.6176  162.3589 N.am    1  UNL1       -0.2791
     24 C         139.0366  142.2457  161.7746 C.2     1  UNL1        0.2672
     25 O         138.0864  142.9977  162.6587 O.2     1  UNL1       -0.2682
     26 H         140.8908  141.1240  161.7786 H       1  UNL1        0.1552
     27 C         138.7562  142.1217  160.3063 C.ar    1  UNL1        0.1348
     28 C         138.2523  140.8248  159.7459 C.ar    1  UNL1        0.0245
     29 C         137.9719  140.7008  158.2775 C.ar    1  UNL1        0.0135
     30 C         138.1955  141.8737  157.3696 C.ar    1  UNL1        0.0876
     31 C         138.6995  143.1706  157.9301 C.ar    1  UNL1        0.1092
     32 N         138.9798  143.2946  159.3984 N.ar    1  UNL1       -0.2385
     33 C         137.9151  141.7497  155.9013 C.1     1  UNL1        0.1020
     34 N         137.6348  141.6257  154.4330 N.1     1  UNL1       -0.1908
@<TRIPOS>BOND
     1     1     2    1
     2     2     3    1
     3     2     4    1
     4     4     5    1
     5     5     6   ar
     6     6     7   ar
     7     7     8   ar
     8     8    23    1
     9    23    24   am
    10    24    25    2
    11    24    27    1
    12    27    28   ar
    13    28    29   ar
    14    29    30   ar
    15    30    33    1
    16    33    34    3
    17    30    31   ar
    18    31    32   ar
    19     8     9   ar
    20     9    10   ar
    21    10    11    1
    22    11    12    1
    23    12    13    1
    24    13    14    1
    25    14    15    1
    26    14    16    2
    27    11    17    1
    28    17    18    1
    29    18    19    1
    30    19    20    1
    31    17     2    1
    32    10     5   ar
    33    16    11    1
    34    20    17    1
    35    32    27   ar
    36    23    26    1
    37    15    21    1
    38    15    22    1
@<TRIPOS>MOLECULE
*****
 34 38 0 0 0
SMALL
GASTEIGER

@<TRIPOS>ATOM
      1 C         140.0706  141.0837  170.2627 C.3     1  UNL1        0.0438
      2 C         140.6857  141.3641  168.9235 C.3     1  UNL1        0.1398
      3 C         141.5112  142.2732  169.7849 C.3     1  UNL1        0.0438
      4 O         141.5874  141.9603  167.8836 O.3     1  UNL1       -0.4826
      5 C         141.4501  141.5499  166.4474 C.ar    1  UNL1        0.1361
      6 C         142.3518  142.1461  165.4075 C.ar    1  UNL1        0.0379
      7 C         142.2145  141.7358  163.9713 C.ar    1  UNL1        0.0178
      8 C         141.1753  140.7292  163.5750 C.ar    1  UNL1        0.0505
      9 C         140.2735  140.1330  164.6149 C.ar    1  UNL1        0.0153
     10 C         140.4109  140.5434  166.0511 C.ar    1  UNL1        0.0369
     11 C         139.5092  139.9473  167.0910 C.3     1  UNL1        0.1581
     12 C         139.2554  139.4424  165.7014 C.3     1  UNL1        0.2351
     13 O         138.1306  138.4519  165.7663 O.2     1  UNL1       -0.4478
     14 C         137.6894  138.3447  167.1959 C.2     1  UNL1        0.2770
     15 N         136.5893  137.4673  167.7156 N.pl3   1  UNL1       -0.3133
     16 N         138.5413  139.2688  168.0146 N.2     1  UNL1       -0.2202
     17 C         139.6465  140.3576  168.5272 C.3     1  UNL1        0.1141
     18 C         139.8981  140.5239  168.2371 C.3     1  UNL1        0.1501
     19 O         139.6337  140.3491  168.5421 O.3     1  UNL1       -0.3532
     20 C         139.8981  140.5239  168.2371 C.3     1  UNL1        0.1501
     21 H         136.0840  136.8925  167.0963 H       1  UNL1        0.1466
     22 H         136.3725  137.4663  168.6759 H       1  UNL1        0.1466
     23 N         141.0379  140.3189  162.1388 N.am    1  UNL1       -0.2791
     24 C         141.6488  139.0337  161.6642 C.2     1  UNL1        0.2672
     25 O         142.3971  138.1589  162.6259 O.2     1  UNL1       -0.2682
     26 H         140.5468  140.8931  161.5076 H       1  UNL1        0.1552
     27 C         141.5115  138.6234  160.2280 C.ar    1  UNL1        0.1348
     28 C         140.1691  138.6685  159.5602 C.ar    1  UNL1        0.0245
     29 C         140.0317  138.2581  158.1240 C.ar    1  UNL1        0.0135
     30 C         141.2367  137.8027  157.3555 C.ar    1  UNL1        0.0876
     31 C         142.5791  137.7576  158.0233 C.ar    1  UNL1        0.1092
     32 N         142.7165  138.1679  159.4595 N.ar    1  UNL1       -0.2385
     33 C         141.0993  137.3924  155.9193 C.1     1  UNL1        0.1020
     34 N         140.9620  136.9820  154.4831 N.1     1  UNL1       -0.1908
@<TRIPOS>BOND
     1     1     2    1
     2     2     3    1
     3     2     4    1
     4     4     5    1
     5     5     6   ar
     6     6     7   ar
     7     7     8   ar
     8     8    23    1
     9    23    24   am
    10    24    25    2
    11    24    27    1
    12    27    28   ar
    13    28    29   ar
    14    29    30   ar
    15    30    33    1
    16    33    34    3
    17    30    31   ar
    18    31    32   ar
    19     8     9   ar
    20     9    10   ar
    21    10    11    1
    22    11    12    1
    23    12    13    1
    24    13    14    1
    25    14    15    1
    26    14    16    2
    27    11    17    1
    28    17    18    1
    29    18    19    1
    30    19    20    1
    31    17     2    1
    32    10     5   ar
    33    16    11    1
    34    20    17    1
    35    32    27   ar
    36    23    26    1
    37    15    21    1
    38    15    22    1
@<TRIPOS>MOLECULE
*****
 34 38 0 0 0
SMALL
GASTEIGER

@<TRIPOS>ATOM
      1 C         142.3450  141.8157  167.5139 C.3     1  UNL1        0.0438
      2 C         141.5071  142.6231  166.5672 C.3     1  UNL1        0.1398
      3 C         140.5659  142.5271  167.7311 C.3     1  UNL1        0.0438
      4 O         140.3424  143.3971  166.0247 O.3     1  UNL1       -0.4826
      5 C         140.4099  143.9867  164.6472 C.ar    1  UNL1        0.1361
      6 C         139.2451  144.7608  164.1047 C.ar    1  UNL1        0.0379
      7 C         139.3126  145.3504  162.7272 C.ar    1  UNL1        0.0178
      8 C         140.5449  145.1659  161.8919 C.ar    1  UNL1        0.0505
      9 C         141.7097  144.3919  162.4344 C.ar    1  UNL1        0.0153
     10 C         141.6421  143.8023  163.8120 C.ar    1  UNL1        0.0369
     11 C         142.8069  143.0283  164.3545 C.3     1  UNL1        0.1581
     12 C         143.0187  143.5568  162.9667 C.3     1  UNL1        0.2351
     13 O         144.3865  143.1381  162.5149 O.2     1  UNL1       -0.4478
     14 C         145.0200  142.3508  163.6235 C.2     1  UNL1        0.2770
     15 N         146.3892  141.7388  163.5994 N.pl3   1  UNL1       -0.3133
     16 N         144.0437  142.2829  164.7604 N.2     1  UNL1       -0.2202
     17 C         142.7394  142.4387  165.7320 C.3     1  UNL1        0.1141
     18 C         142.4144  142.6546  165.5807 C.3     1  UNL1        0.1501
     19 O         142.7560  142.4276  165.7398 O.3     1  UNL1       -0.3532
     20 C         142.4144  142.6546  165.5807 C.3     1  UNL1        0.1501
     21 H         146.9590  141.8384  162.8027 H       1  UNL1        0.1466
     22 H         146.7182  141.2376  164.3803 H       1  UNL1        0.1466
     23 N         140.6124  145.7555  160.5144 N.am    1  UNL1       -0.2791
     24 C         140.4310  144.8764  159.3125 C.2     1  UNL1        0.2672
     25 O         140.1821  143.4077  159.4884 O.2     1  UNL1       -0.2682
     26 H         140.7758  146.7195  160.3990 H       1  UNL1        0.1552
     27 C         140.4985  145.4660  157.9349 C.ar    1  UNL1        0.1348
     28 C         141.5280  144.9773  156.9597 C.ar    1  UNL1        0.0245
     29 C         141.5955  145.5669  155.5820 C.ar    1  UNL1        0.0135
     30 C         140.6335  146.6452  155.1797 C.ar    1  UNL1        0.0876
     31 C         139.6040  147.1339  156.1551 C.ar    1  UNL1        0.1092
     32 N         139.5365  146.5443  157.5327 N.ar    1  UNL1       -0.2385
     33 C         140.7010  147.2348  153.8021 C.1     1  UNL1        0.1020
     34 N         140.7685  147.8244  152.4245 N.1     1  UNL1       -0.1908
@<TRIPOS>BOND
     1     1     2    1
     2     2     3    1
     3     2     4    1
     4     4     5    1
     5     5     6   ar
     6     6     7   ar
     7     7     8   ar
     8     8    23    1
     9    23    24   am
    10    24    25    2
    11    24    27    1
    12    27    28   ar
    13    28    29   ar
    14    29    30   ar
    15    30    33    1
    16    33    34    3
    17    30    31   ar
    18    31    32   ar
    19     8     9   ar
    20     9    10   ar
    21    10    11    1
    22    11    12    1
    23    12    13    1
    24    13    14    1
    25    14    15    1
    26    14    16    2
    27    11    17    1
    28    17    18    1
    29    18    19    1
    30    19    20    1
    31    17     2    1
    32    10     5   ar
    33    16    11    1
    34    20    17    1
    35    32    27   ar
    36    23    26    1
    37    15    21    1
    38    15    22    1
@<TRIPOS>MOLECULE
*****
 34 38 0 0 0
SMALL
GASTEIGER

@<TRIPOS>ATOM
      1 C         141.6162  139.9985  170.4540 C.3     1  UNL1        0.0438
      2 C         142.1382  140.7103  169.2410 C.3     1  UNL1        0.1398
      3 C         143.2063  141.0666  170.2320 C.3     1  UNL1        0.0438
      4 O         143.0311  141.5458  168.3724 O.3     1  UNL1       -0.4826
      5 C         142.6746  141.7778  166.9340 C.ar    1  UNL1        0.1361
      6 C         143.5675  142.6133  166.0653 C.ar    1  UNL1        0.0379
      7 C         143.2110  142.8453  164.6269 C.ar    1  UNL1        0.0178
      8 C         141.9615  142.2418  164.0571 C.ar    1  UNL1        0.0505
      9 C         141.0686  141.4062  164.9258 C.ar    1  UNL1        0.0153
     10 C         141.4252  141.1742  166.3642 C.ar    1  UNL1        0.0369
     11 C         140.5323  140.3387  167.2329 C.3     1  UNL1        0.1581
     12 C         140.0484  140.4826  165.8203 C.3     1  UNL1        0.2351
     13 O         138.7643  139.7181  165.6901 O.2     1  UNL1       -0.4478
     14 C         138.4547  139.1017  167.0221 C.2     1  UNL1        0.2770
     15 N         137.2618  138.2512  167.3441 N.pl3   1  UNL1       -0.3133
     16 N         139.5473  139.4853  167.9756 N.2     1  UNL1       -0.2202
     17 C         140.8888  140.1067  168.6713 C.3     1  UNL1        0.1141
     18 C         141.1379  140.3398  168.4290 C.3     1  UNL1        0.1501
     19 O         140.8760  140.0948  168.6837 O.3     1  UNL1       -0.3532
     20 C         141.1379  140.3398  168.4290 C.3     1  UNL1        0.1501
     21 H         136.5953  138.0539  166.6469 H       1  UNL1        0.1466
     22 H         137.1454  137.8903  168.2526 H       1  UNL1        0.1466
     23 N         141.6050  142.4737  162.6187 N.am    1  UNL1       -0.2791
     24 C         141.1786  143.8375  162.1622 C.2     1  UNL1        0.2672
     25 O         141.1088  144.9693  163.1442 O.2     1  UNL1       -0.2682
     26 H         141.6509  141.7309  161.9742 H       1  UNL1        0.1552
     27 C         140.8221  144.0695  160.7238 C.ar    1  UNL1        0.1348
     28 C         139.7600  143.2359  160.0705 C.ar    1  UNL1        0.0245
     29 C         139.4034  143.4678  158.6321 C.ar    1  UNL1        0.0135
     30 C         140.1091  144.5335  157.8469 C.ar    1  UNL1        0.0876
     31 C         141.1713  145.3671  158.5003 C.ar    1  UNL1        0.1092
     32 N         141.5278  145.1352  159.9387 N.ar    1  UNL1       -0.2385
     33 C         139.7526  144.7655  156.4085 C.1     1  UNL1        0.1020
     34 N         139.3961  144.9974  154.9701 N.1     1  UNL1       -0.1908
@<TRIPOS>BOND
     1     1     2    1
     2     2     3    1
     3     2     4    1
     4     4     5    1
     5     5     6   ar
     6     6     7   ar
     7     7     8   ar
     8     8    23    1
     9    23    24   am
    10    24    25    2
    11    24    27    1
    12    27    28   ar
    13    28    29   ar
    14    29    30   ar
    15    30    33    1
    16    33    34    3
    17    30    31   ar
    18    31    32   ar
    19     8     9   ar
    20     9    10   ar
    21    10    11    1
    22    11    12    1
    23    12    13    1
    24    13    14    1
    25    14    15    1
    26    14    16    2
    27    11    17    1
    28    17    18    1
    29    18    19    1
    30    19    20    1
    31    17     2    1
    32    10     5   ar
    33    16    11    1
    34    20    17    1
    35    32    27   ar
    36    23    26    1
    37    15    21    1
    38    15    22    1
@<TRIPOS>MOLECULE
*****
 34 38 0 0 0
SMALL
GASTEIGER

@<TRIPOS>ATOM
      1 C         140.0302  141.5017  169.9236 C.3     1  UNL1        0.0438
      2 C         139.6163  140.5616  168.8304 C.3     1  UNL1        0.1398
      3 C         138.5769  140.2358  169.8617 C.3     1  UNL1        0.0438
      4 O         138.8413  139.5083  168.0955 O.3     1  UNL1       -0.4826
      5 C         139.2496  139.1073  166.7090 C.ar    1  UNL1        0.1361
      6 C         138.4746  138.0540  165.9741 C.ar    1  UNL1        0.0379
      7 C         138.8829  137.6530  164.5875 C.ar    1  UNL1        0.0178
      8 C         140.0661  138.3053  163.9358 C.ar    1  UNL1        0.0505
      9 C         140.8410  139.3586  164.6708 C.ar    1  UNL1        0.0153
     10 C         140.4327  139.7596  166.0574 C.ar    1  UNL1        0.0369
     11 C         141.2076  140.8128  166.7923 C.3     1  UNL1        0.1581
     12 C         141.7319  140.5170  165.4183 C.3     1  UNL1        0.2351
     13 O         142.9226  141.3968  165.1771 O.2     1  UNL1       -0.4478
     14 C         143.1343  142.2364  166.4019 C.2     1  UNL1        0.2770
     15 N         144.2159  143.2576  166.5947 N.pl3   1  UNL1       -0.3133
     16 N         142.0744  141.8755  167.4002 N.2     1  UNL1       -0.2202
     17 C         140.7994  141.2138  168.1788 C.3     1  UNL1        0.1141
     18 C         140.5832  140.9200  167.9738 C.3     1  UNL1        0.1501
     19 O         140.8105  141.2289  168.1893 O.3     1  UNL1       -0.3532
     20 C         140.5832  140.9200  167.9738 C.3     1  UNL1        0.1501
     21 H         144.8688  143.4246  165.8770 H       1  UNL1        0.1466
     22 H         144.2729  143.7610  167.4389 H       1  UNL1        0.1466
     23 N         140.4743  137.9043  162.5493 N.am    1  UNL1       -0.2791
     24 C         140.2522  138.8434  161.4009 C.2     1  UNL1        0.2672
     25 O         139.6218  140.1835  161.6391 O.2     1  UNL1       -0.2682
     26 H         140.8881  137.0247  162.3930 H       1  UNL1        0.1552
     27 C         140.6604  138.4424  160.0144 C.ar    1  UNL1        0.1348
     28 C         142.0865  138.0751  159.7292 C.ar    1  UNL1        0.0245
     29 C         142.4948  137.6741  158.3426 C.ar    1  UNL1        0.0135
     30 C         141.4770  137.6404  157.2413 C.ar    1  UNL1        0.0876
     31 C         140.0508  138.0077  157.5266 C.ar    1  UNL1        0.1092
     32 N         139.6426  138.4087  158.9131 N.ar    1  UNL1       -0.2385
     33 C         141.8852  137.2394  155.8548 C.1     1  UNL1        0.1020
     34 N         142.2934  136.8384  154.4682 N.1     1  UNL1       -0.1908
@<TRIPOS>BOND
     1     1     2    1
     2     2     3    1
     3     2     4    1
     4     4     5    1
     5     5     6   ar
     6     6     7   ar
     7     7     8   ar
     8     8    23    1
     9    23    24   am
    10    24    25    2
    11    24    27    1
    12    27    28   ar
    13    28    29   ar
    14    29    30   ar
    15    30    33    1
    16    33    34    3
    17    30    31   ar
    18    31    32   ar
    19     8     9   ar
    20     9    10   ar
    21    10    11    1
    22    11    12    1
    23    12    13    1
    24    13    14    1
    25    14    15    1
    26    14    16    2
    27    11    17    1
    28    17    18    1
    29    18    19    1
    30    19    20    1
    31    17     2    1
    32    10     5   ar
    33    16    11    1
    34    20    17    1
    35    32    27   ar
    36    23    26    1
    37    15    21    1
    38    15    22    1
@<TRIPOS>MOLECULE
*****
 34 38 0 0 0
SMALL
GASTEIGER

@<TRIPOS>ATOM
      1 C         141.8263  141.6820  168.9255 C.3     1  UNL1        0.0438
      2 C         141.0624  142.4701  167.9030 C.3     1  UNL1        0.1398
      3 C         140.3855  142.9429  169.1553 C.3     1  UNL1        0.0438
      4 O         140.0633  143.4223  167.3154 O.3     1  UNL1       -0.4826
      5 C         140.0065  143.6280  165.8307 C.ar    1  UNL1        0.1361
      6 C         139.0075  144.5802  165.2431 C.ar    1  UNL1        0.0379
      7 C         138.9507  144.7859  163.7584 C.ar    1  UNL1        0.0178
      8 C         139.8929  144.0394  162.8612 C.ar    1  UNL1        0.0505
      9 C         140.8919  143.0872  163.4487 C.ar    1  UNL1        0.0153
     10 C         140.9487  142.8815  164.9335 C.ar    1  UNL1        0.0369
     11 C         141.9477  141.9292  165.5211 C.3     1  UNL1        0.1581
     12 C         142.0084  142.0313  164.0257 C.3     1  UNL1        0.2351
     13 O         143.0929  141.1146  163.5422 O.2     1  UNL1       -0.4478
     14 C         143.7025  140.4461  164.7386 C.2     1  UNL1        0.2770
     15 N         144.8230  139.4492  164.7160 N.pl3   1  UNL1       -0.3133
     16 N         142.9947  140.9496  165.9617 N.2     1  UNL1       -0.2202
     17 C         142.0045  141.7235  167.0058 C.3     1  UNL1        0.1141
     18 C         141.7258  141.9892  166.8419 C.3     1  UNL1        0.1501
     19 O         142.0188  141.7099  167.0142 O.3     1  UNL1       -0.3532
     20 C         141.7258  141.9892  166.8419 C.3     1  UNL1        0.1501
     21 H         145.2252  139.1801  163.8587 H       1  UNL1        0.1466
     22 H         145.1563  139.0640  165.5586 H       1  UNL1        0.1466
     23 N         139.8361  144.2451  161.3765 N.am    1  UNL1       -0.2791
     24 C         141.0761  144.6281  160.6243 C.2     1  UNL1        0.2672
     25 O         142.3730  144.8053  161.3570 O.2     1  UNL1       -0.2682
     26 H         138.9849  144.1288  160.8956 H       1  UNL1        0.1552
     27 C         141.0193  144.8338  159.1396 C.ar    1  UNL1        0.1348
     28 C         139.9179  144.2068  158.3373 C.ar    1  UNL1        0.0245
     29 C         139.8611  144.4125  156.8525 C.ar    1  UNL1        0.0135
     30 C         140.9056  145.2451  156.1701 C.ar    1  UNL1        0.0876
     31 C         142.0070  145.8721  156.9726 C.ar    1  UNL1        0.1092
     32 N         142.0638  145.6664  158.4573 N.ar    1  UNL1       -0.2385
     33 C         140.8488  145.4508  154.6854 C.1     1  UNL1        0.1020
     34 N         140.7919  145.6566  153.2007 N.1     1  UNL1       -0.1908
@<TRIPOS>BOND
     1     1     2    1
     2     2     3    1
     3     2     4    1
     4     4     5    1
     5     5     6   ar
     6     6     7   ar
     7     7     8   ar
     8     8    23    1
     9    23    24   am
    10    24    25    2
    11    24    27    1
    12    27    28   ar
    13    28    29   ar
    14    29    30   ar
    15    30    33    1
    16    33    34    3
    17    30    31   ar
    18    31    32   ar
    19     8     9   ar
    20     9    10   ar
    21    10    11    1
    22    11    12    1
    23    12    13    1
    24    13    14    1
    25    14    15    1
    26    14    16    2
    27    11    17    1
    28    17    18    1
    29    18    19    1
    30    19    20    1
    31    17     2    1
    32    10     5   ar
    33    16    11    1
    34    20    17    1
    35    32    27   ar
    36    23    26    1
    37    15    21    1
    38    15    22    1
@<TRIPOS>MOLECULE
*****
 34 38 0 0 0
SMALL
GASTEIGER

@<TRIPOS>ATOM
      1 C         137.6394  143.2955  164.5757 C.3     1  UNL1        0.0438
      2 C         137.8797  143.0070  163.1233 C.3     1  UNL1        0.1398
      3 C         137.6069  144.4804  163.0547 C.3     1  UNL1        0.0438
      4 O         138.0253  143.2304  161.6472 O.3     1  UNL1       -0.4826
      5 C         138.3602  142.0805  160.7442 C.ar    1  UNL1        0.1361
      6 C         138.5058  142.3038  159.2680 C.ar    1  UNL1        0.0379
      7 C         138.8407  141.1539  158.3650 C.ar    1  UNL1        0.0178
      8 C         139.0300  139.7806  158.9380 C.ar    1  UNL1        0.0505
      9 C         138.8844  139.5573  160.4141 C.ar    1  UNL1        0.0153
     10 C         138.5495  140.7073  161.3172 C.ar    1  UNL1        0.0369
     11 C         138.4039  140.4840  162.7933 C.3     1  UNL1        0.1581
     12 C         138.7397  139.2439  162.0189 C.3     1  UNL1        0.2351
     13 O         138.8340  138.1032  162.9885 O.2     1  UNL1       -0.4478
     14 C         138.5566  138.6382  164.3620 C.2     1  UNL1        0.2770
     15 N         138.5467  137.8417  165.6330 N.pl3   1  UNL1       -0.3133
     16 N         138.2908  140.1096  164.2415 N.2     1  UNL1       -0.2202
     17 C         138.0690  141.6339  163.6964 C.3     1  UNL1        0.1141
     18 C         138.1096  141.6962  163.2846 C.3     1  UNL1        0.1501
     19 O         138.0670  141.6307  163.7175 O.3     1  UNL1       -0.3532
     20 C         138.1096  141.6962  163.2846 C.3     1  UNL1        0.1501
     21 H         138.7343  136.8755  165.6099 H       1  UNL1        0.1466
     22 H         138.3526  138.2851  166.4903 H       1  UNL1        0.1466
     23 N         139.3649  138.6308  158.0350 N.am    1  UNL1       -0.2791
     24 C         140.7909  138.3712  157.6485 C.2     1  UNL1        0.2672
     25 O         141.8819  139.2616  158.1651 O.2     1  UNL1       -0.2682
     26 H         138.6488  138.0464  157.6959 H       1  UNL1        0.1552
     27 C         141.1258  137.2213  156.7454 C.ar    1  UNL1        0.1348
     28 C         140.2682  136.9328  155.5491 C.ar    1  UNL1        0.0245
     29 C         140.6031  135.7829  154.6460 C.ar    1  UNL1        0.0135
     30 C         141.7956  134.9215  154.9392 C.ar    1  UNL1        0.0876
     31 C         142.6533  135.2101  156.1356 C.ar    1  UNL1        0.1092
     32 N         142.3184  136.3600  157.0386 N.ar    1  UNL1       -0.2385
     33 C         142.1305  133.7717  154.0361 C.1     1  UNL1        0.1020
     34 N         142.4654  132.6218  153.1331 N.1     1  UNL1       -0.1908
@<TRIPOS>BOND
     1     1     2    1
     2     2     3    1
     3     2     4    1
     4     4     5    1
     5     5     6   ar
     6     6     7   ar
     7     7     8   ar
     8     8    23    1
     9    23    24   am
    10    24    25    2
    11    24    27    1
    12    27    28   ar
    13    28    29   ar
    14    29    30   ar
    15    30    33    1
    16    33    34    3
    17    30    31   ar
    18    31    32   ar
    19     8     9   ar
    20     9    10   ar
    21    10    11    1
    22    11    12    1
    23    12    13    1
    24    13    14    1
    25    14    15    1
    26    14    16    2
    27    11    17    1
    28    17    18    1
    29    18    19    1
    30    19    20    1
    31    17     2    1
    32    10     5   ar
    33    16    11    1
    34    20    17    1
    35    32    27   ar
    36    23    26    1
    37    15    21    1
    38    15    22    1
@<TRIPOS>MOLECULE
*****
 34 38 0 0 0
SMALL
GASTEIGER

@<TRIPOS>ATOM
      1 C         139.7224  140.1434  167.1403 C.3     1  UNL1        0.0438
      2 C         139.9647  141.3941  166.3482 C.3     1  UNL1        0.1398
      3 C         140.3499  141.8734  167.7164 C.3     1  UNL1        0.0438
      4 O         140.3408  142.8112  166.0314 O.3     1  UNL1       -0.4826
      5 C         140.2477  143.3145  164.6215 C.ar    1  UNL1        0.1361
      6 C         140.6238  144.7316  164.3046 C.ar    1  UNL1        0.0379
      7 C         140.5306  145.2350  162.8947 C.ar    1  UNL1        0.0178
      8 C         140.0612  144.3213  161.8016 C.ar    1  UNL1        0.0505
      9 C         139.6851  142.9042  162.1184 C.ar    1  UNL1        0.0153
     10 C         139.7783  142.4008  163.5284 C.ar    1  UNL1        0.0369
     11 C         139.4022  140.9837  163.8452 C.3     1  UNL1        0.1581
     12 C         139.2585  141.3437  162.3961 C.3     1  UNL1        0.2351
     13 O         138.7616  140.1320  161.6646 O.2     1  UNL1       -0.4478
     14 C         138.5983  139.0232  162.6615 C.2     1  UNL1        0.2770
     15 N         138.1226  137.6323  162.3632 N.pl3   1  UNL1       -0.3133
     16 N         138.9942  139.5496  164.0093 N.2     1  UNL1       -0.2202
     17 C         139.4954  140.4804  165.2551 C.3     1  UNL1        0.1141
     18 C         139.6003  140.8757  165.1667 C.3     1  UNL1        0.1501
     19 O         139.4900  140.4601  165.2597 O.3     1  UNL1       -0.3532
     20 C         139.6003  140.8757  165.1667 C.3     1  UNL1        0.1501
     21 H         137.8848  137.3805  161.4417 H       1  UNL1        0.1466
     22 H         138.0481  136.9713  163.0890 H       1  UNL1        0.1466
     23 N         139.9681  144.8247  160.3917 N.am    1  UNL1       -0.2791
     24 C         141.1911  144.8551  159.5237 C.2     1  UNL1        0.2672
     25 O         142.5074  144.3821  160.0658 O.2     1  UNL1       -0.2682
     26 H         139.1042  145.1351  160.0359 H       1  UNL1        0.1552
     27 C         141.0979  145.3585  158.1138 C.ar    1  UNL1        0.1348
     28 C         142.1366  144.9636  157.1063 C.ar    1  UNL1        0.0245
     29 C         142.0435  145.4670  155.6963 C.ar    1  UNL1        0.0135
     30 C         140.9116  146.3652  155.2939 C.ar    1  UNL1        0.0876
     31 C         139.8728  146.7601  156.3015 C.ar    1  UNL1        0.1092
     32 N         139.9660  146.2567  157.7114 N.ar    1  UNL1       -0.2385
     33 C         140.8184  146.8686  153.8840 C.1     1  UNL1        0.1020
     34 N         140.7252  147.3720  152.4741 N.1     1  UNL1       -0.1908
@<TRIPOS>BOND
     1     1     2    1
     2     2     3    1
     3     2     4    1
     4     4     5    1
     5     5     6   ar
     6     6     7   ar
     7     7     8   ar
     8     8    23    1
     9    23    24   am
    10    24    25    2
    11    24    27    1
    12    27    28   ar
    13    28    29   ar
    14    29    30   ar
    15    30    33    1
    16    33    34    3
    17    30    31   ar
    18    31    32   ar
    19     8     9   ar
    20     9    10   ar
    21    10    11    1
    22    11    12    1
    23    12    13    1
    24    13    14    1
    25    14    15    1
    26    14    16    2
    27    11    17    1
    28    17    18    1
    29    18    19    1
    30    19    20    1
    31    17     2    1
    32    10     5   ar
    33    16    11    1
    34    20    17    1
    35    32    27   ar
    36    23    26    1
    37    15    21    1
    38    15    22    1
@<TRIPOS>MOLECULE
*****
 34 38 0 0 0
SMALL
GASTEIGER

@<TRIPOS>ATOM
      1 C         142.7138  142.1787  167.8753 C.3     1  UNL1        0.0438
      2 C         141.5694  142.5026  166.9612 C.3     1  UNL1        0.1398
      3 C         140.8609  142.5232  168.2831 C.3     1  UNL1        0.0438
      4 O         140.1789  142.8337  166.5063 O.3     1  UNL1       -0.4826
      5 C         139.8944  143.0317  165.0469 C.ar    1  UNL1        0.1361
      6 C         138.5039  143.3627  164.5920 C.ar    1  UNL1        0.0379
      7 C         138.2194  143.5607  163.1326 C.ar    1  UNL1        0.0178
      8 C         139.3254  143.4277  162.1281 C.ar    1  UNL1        0.0505
      9 C         140.7159  143.0966  162.5830 C.ar    1  UNL1        0.0153
     10 C         141.0004  142.8986  164.0424 C.ar    1  UNL1        0.0369
     11 C         142.3909  142.5676  164.4973 C.3     1  UNL1        0.1581
     12 C         142.2587  142.7366  163.0127 C.3     1  UNL1        0.2351
     13 O         143.6095  142.5157  162.3989 O.2     1  UNL1       -0.4478
     14 C         144.5765  142.2102  163.5041 C.2     1  UNL1        0.2770
     15 N         146.0397  141.9231  163.3411 N.pl3   1  UNL1       -0.3133
     16 N         143.8234  142.2424  164.8011 N.2     1  UNL1       -0.2202
     17 C         142.6754  142.3696  165.9567 C.3     1  UNL1        0.1141
     18 C         142.2874  142.4620  165.8298 C.3     1  UNL1        0.1501
     19 O         142.6952  142.3649  165.9632 O.3     1  UNL1       -0.3532
     20 C         142.2874  142.4620  165.8298 C.3     1  UNL1        0.1501
     21 H         146.4447  141.9249  162.4438 H       1  UNL1        0.1466
     22 H         146.5950  141.7329  164.1314 H       1  UNL1        0.1466
     23 N         139.0410  143.6257  160.6687 N.am    1  UNL1       -0.2791
     24 C         138.8787  142.4370  159.7681 C.2     1  UNL1        0.2672
     25 O         139.0011  141.0504  160.3270 O.2     1  UNL1       -0.2682
     26 H         138.9607  144.5357  160.3019 H       1  UNL1        0.1552
     27 C         138.5943  142.6350  158.3088 C.ar    1  UNL1        0.1348
     28 C         137.5655  141.7856  157.6233 C.ar    1  UNL1        0.0245
     29 C         137.2810  141.9835  156.1638 C.ar    1  UNL1        0.0135
     30 C         138.0252  143.0310  155.3899 C.ar    1  UNL1        0.0876
     31 C         139.0540  143.8805  156.0755 C.ar    1  UNL1        0.1092
     32 N         139.3385  143.6825  157.5349 N.ar    1  UNL1       -0.2385
     33 C         137.7407  143.2290  153.9306 C.1     1  UNL1        0.1020
     34 N         137.4563  143.4270  152.4712 N.1     1  UNL1       -0.1908
@<TRIPOS>BOND
     1     1     2    1
     2     2     3    1
     3     2     4    1
     4     4     5    1
     5     5     6   ar
     6     6     7   ar
     7     7     8   ar
     8     8    23    1
     9    23    24   am
    10    24    25    2
    11    24    27    1
    12    27    28   ar
    13    28    29   ar
    14    29    30   ar
    15    30    33    1
    16    33    34    3
    17    30    31   ar
    18    31    32   ar
    19     8     9   ar
    20     9    10   ar
    21    10    11    1
    22    11    12    1
    23    12    13    1
    24    13    14    1
    25    14    15    1
    26    14    16    2
    27    11    17    1
    28    17    18    1
    29    18    19    1
    30    19    20    1
    31    17     2    1
    32    10     5   ar
    33    16    11    1
    34    20    17    1
    35    32    27   ar
    36    23    26    1
    37    15    21    1
    38    15    22    1
