@<TRIPOS>MOLECULE
*****
 33 36 0 0 0
SMALL
GASTEIGER

@<TRIPOS>ATOM
      1 N         140.8269  142.2171  166.9968 N.ar    1  UNL1       -0.2874
      2 C         140.8610  142.7332  168.4048 C.ar    1  UNL1        0.0858
      3 C         140.1343  141.9972  169.4911 C.ar    1  UNL1        0.0705
      4 C         139.3737  140.7450  169.1696 C.ar    1  UNL1        0.1996
      5 O         138.6470  140.0090  170.2560 O.2     1  UNL1       -0.2864
      6 C         139.3396  140.2289  167.7616 C.ar    1  UNL1        0.0582
      7 C         138.5789  138.9767  167.4401 C.ar    1  UNL1        0.0340
      8 C         138.5448  138.4605  166.0321 C.ar    1  UNL1        0.1371
      9 F         137.7841  137.2084  165.7105 F       1  UNL1       -0.2045
     10 C         139.2715  139.1965  164.9456 C.ar    1  UNL1        0.0171
     11 C         140.0322  140.4487  165.2672 C.ar    1  UNL1        0.0720
     12 CL        140.7588  141.1847  164.1808 Cl      1  UNL1       -0.0810
     13 C         140.0662  140.9649  166.6752 C.ar    1  UNL1        0.0788
     14 N         140.8338  145.7302  163.1682 N.pl3   1  UNL1       -0.3408
     15 C         141.5570  144.7097  163.9960 C.ar    1  UNL1        0.1548
     16 N         140.8303  143.9736  165.0825 N.ar    1  UNL1       -0.2091
     17 C         141.5536  142.9531  165.9103 C.ar    1  UNL1        0.1769
     18 C         143.0034  142.6684  165.6517 C.ar    1  UNL1        0.1767
     19 F         143.7266  141.6478  166.4796 F       1  UNL1       -0.2009
     20 C         143.7301  143.4044  164.5653 C.ar    1  UNL1        0.0652
     21 C         143.0069  144.4250  163.7375 C.ar    1  UNL1        0.1734
     22 F         143.7335  145.1610  162.6511 F       1  UNL1       -0.2012
     23 H         139.8822  145.9170  163.3380 H       1  UNL1        0.1438
     24 H         141.3107  146.2133  162.4552 H       1  UNL1        0.1438
     25 C         139.2374  138.6804  163.5377 C.3     1  UNL1        0.0302
     26 C         138.3812  138.9392  162.3335 C.3     1  UNL1        0.0338
     27 C         139.1892  137.9504  161.5465 C.3     1  UNL1        0.1112
     28 O         139.1552  137.4341  160.1385 O.3     1  UNL1       -0.3844
     29 C         140.0454  137.6916  162.7507 C.3     1  UNL1        0.0338
     30 H         139.8653  136.7850  160.0149 H       1  UNL1        0.2103
     31 C         140.1684  142.5134  170.8992 C.2     1  UNL1        0.0774
     32 O         139.0600  143.3888  171.4041 O.co2   1  UNL1       -0.5444
     33 O         141.3109  142.1541  171.8022 O.co2   1  UNL1       -0.5444
@<TRIPOS>UNITY_ATOM_ATTR
32 1
charge -1
@<TRIPOS>BOND
     1    14    15    1
     2    15    16   ar
     3    16    17   ar
     4    17     1    1
     5     1     2   ar
     6     2     3   ar
     7     3    31    1
     8    31    32   ar
     9    31    33   ar
    10     3     4   ar
    11     4     5    2
    12     4     6   ar
    13     6     7   ar
    14     7     8   ar
    15     8     9    1
    16     8    10   ar
    17    25    10    1
    18    25    26    1
    19    26    27    1
    20    27    28    1
    21    27    29    1
    22    10    11   ar
    23    11    12    1
    24    11    13   ar
    25    17    18   ar
    26    18    19    1
    27    18    20   ar
    28    20    21   ar
    29    21    22    1
    30    21    15   ar
    31    13     1   ar
    32    13     6   ar
    33    29    25    1
    34    14    23    1
    35    14    24    1
    36    28    30    1
@<TRIPOS>MOLECULE
*****
 33 36 0 0 0
SMALL
GASTEIGER

@<TRIPOS>ATOM
      1 N         140.7854  142.1684  167.0126 N.ar    1  UNL1       -0.2874
      2 C         140.8311  142.6888  168.4187 C.ar    1  UNL1        0.0858
      3 C         140.1032  141.9628  169.5110 C.ar    1  UNL1        0.0705
      4 C         139.3297  140.7166  169.1972 C.ar    1  UNL1        0.1996
      5 O         138.6018  139.9906  170.2897 O.2     1  UNL1       -0.2864
      6 C         139.2840  140.1962  167.7912 C.ar    1  UNL1        0.0582
      7 C         138.5105  138.9500  167.4774 C.ar    1  UNL1        0.0340
      8 C         138.4648  138.4296  166.0713 C.ar    1  UNL1        0.1371
      9 F         137.6913  137.1834  165.7576 F       1  UNL1       -0.2045
     10 C         139.1927  139.1556  164.9789 C.ar    1  UNL1        0.0171
     11 C         139.9662  140.4018  165.2927 C.ar    1  UNL1        0.0720
     12 CL        140.6940  141.1278  164.2004 Cl      1  UNL1       -0.0810
     13 C         140.0119  140.9222  166.6988 C.ar    1  UNL1        0.0788
     14 N         145.1096  142.9646  164.2436 N.pl3   1  UNL1       -0.3408
     15 C         143.6754  143.2925  164.5357 C.ar    1  UNL1        0.1548
     16 N         142.9475  142.5665  165.6281 N.ar    1  UNL1       -0.2091
     17 C         141.5133  142.8944  165.9202 C.ar    1  UNL1        0.1769
     18 C         140.8068  143.9482  165.1199 C.ar    1  UNL1        0.1767
     19 F         139.3725  144.2761  165.4121 F       1  UNL1       -0.2009
     20 C         141.5346  144.6741  164.0276 C.ar    1  UNL1        0.0652
     21 C         142.9689  144.3463  163.7354 C.ar    1  UNL1        0.1734
     22 F         143.6967  145.0722  162.6431 F       1  UNL1       -0.2012
     23 H         145.5733  142.2729  164.7688 H       1  UNL1        0.1438
     24 H         145.5873  143.4410  163.5266 H       1  UNL1        0.1438
     25 C         139.1470  138.6352  163.5728 C.3     1  UNL1        0.0302
     26 C         138.2483  138.8498  162.3912 C.3     1  UNL1        0.0338
     27 C         139.0824  137.8994  161.5843 C.3     1  UNL1        0.1112
     28 O         139.0367  137.3790  160.1781 O.3     1  UNL1       -0.3844
     29 C         139.9811  137.6848  162.7659 C.3     1  UNL1        0.0338
     30 H         139.7739  136.7646  160.0366 H       1  UNL1        0.2103
     31 C         140.1489  142.4832  170.9172 C.2     1  UNL1        0.0774
     32 O         139.0705  143.4004  171.4129 O.co2   1  UNL1       -0.5444
     33 O         141.2730  142.0862  171.8276 O.co2   1  UNL1       -0.5444
@<TRIPOS>UNITY_ATOM_ATTR
32 1
charge -1
@<TRIPOS>BOND
     1    14    15    1
     2    15    16   ar
     3    16    17   ar
     4    17     1    1
     5     1     2   ar
     6     2     3   ar
     7     3    31    1
     8    31    32   ar
     9    31    33   ar
    10     3     4   ar
    11     4     5    2
    12     4     6   ar
    13     6     7   ar
    14     7     8   ar
    15     8     9    1
    16     8    10   ar
    17    25    10    1
    18    25    26    1
    19    26    27    1
    20    27    28    1
    21    27    29    1
    22    10    11   ar
    23    11    12    1
    24    11    13   ar
    25    17    18   ar
    26    18    19    1
    27    18    20   ar
    28    20    21   ar
    29    21    22    1
    30    21    15   ar
    31    13     1   ar
    32    13     6   ar
    33    29    25    1
    34    14    23    1
    35    14    24    1
    36    28    30    1
@<TRIPOS>MOLECULE
*****
 33 36 0 0 0
SMALL
GASTEIGER

@<TRIPOS>ATOM
      1 N         142.7924  141.8887  166.2533 N.ar    1  UNL1       -0.2874
      2 C         143.4399  142.4871  167.4668 C.ar    1  UNL1        0.0858
      3 C         142.8437  142.2592  168.8242 C.ar    1  UNL1        0.0705
      4 C         141.6001  141.4329  168.9681 C.ar    1  UNL1        0.1996
      5 O         141.0040  141.2050  170.3256 O.2     1  UNL1       -0.2864
      6 C         140.9527  140.8345  167.7546 C.ar    1  UNL1        0.0582
      7 C         139.7091  140.0082  167.8985 C.ar    1  UNL1        0.0340
      8 C         139.0616  139.4098  166.6849 C.ar    1  UNL1        0.1371
      9 F         137.8181  138.5835  166.8288 F       1  UNL1       -0.2045
     10 C         139.6578  139.6377  165.3274 C.ar    1  UNL1        0.0171
     11 C         140.9014  140.4640  165.1835 C.ar    1  UNL1        0.0720
     12 CL        141.4975  140.6920  163.8261 Cl      1  UNL1       -0.0810
     13 C         141.5488  141.0624  166.3972 C.ar    1  UNL1        0.0788
     14 N         143.2447  144.7903  161.9664 N.pl3   1  UNL1       -0.3408
     15 C         143.6147  143.5674  162.7523 C.ar    1  UNL1        0.1548
     16 N         143.0186  143.3395  164.1099 N.ar    1  UNL1       -0.2091
     17 C         143.3885  142.1167  164.8958 C.ar    1  UNL1        0.1769
     18 C         144.3547  141.1217  164.3243 C.ar    1  UNL1        0.1767
     19 F         144.7247  139.8988  165.1103 F       1  UNL1       -0.2009
     20 C         144.9508  141.3495  162.9668 C.ar    1  UNL1        0.0652
     21 C         144.5808  142.5724  162.1808 C.ar    1  UNL1        0.1734
     22 F         145.1769  142.8003  160.8234 F       1  UNL1       -0.2012
     23 H         142.6106  145.4433  162.3415 H       1  UNL1        0.1438
     24 H         143.6360  144.9398  161.0755 H       1  UNL1        0.1438
     25 C         139.0103  139.0393  164.1139 C.3     1  UNL1        0.0302
     26 C         138.9685  137.6715  163.4997 C.3     1  UNL1        0.0338
     27 C         138.0947  138.1931  162.3977 C.3     1  UNL1        0.1112
     28 O         137.4472  137.5947  161.1841 O.3     1  UNL1       -0.3844
     29 C         138.1365  139.5609  163.0119 C.3     1  UNL1        0.0338
     30 H         136.9490  138.2803  160.7122 H       1  UNL1        0.2103
     31 C         143.4912  142.8576  170.0379 C.2     1  UNL1        0.0774
     32 O         144.9858  142.8656  170.1635 O.co2   1  UNL1       -0.5444
     33 O         142.6439  143.4479  171.1258 O.co2   1  UNL1       -0.5444
@<TRIPOS>UNITY_ATOM_ATTR
32 1
charge -1
@<TRIPOS>BOND
     1    14    15    1
     2    15    16   ar
     3    16    17   ar
     4    17     1    1
     5     1     2   ar
     6     2     3   ar
     7     3    31    1
     8    31    32   ar
     9    31    33   ar
    10     3     4   ar
    11     4     5    2
    12     4     6   ar
    13     6     7   ar
    14     7     8   ar
    15     8     9    1
    16     8    10   ar
    17    25    10    1
    18    25    26    1
    19    26    27    1
    20    27    28    1
    21    27    29    1
    22    10    11   ar
    23    11    12    1
    24    11    13   ar
    25    17    18   ar
    26    18    19    1
    27    18    20   ar
    28    20    21   ar
    29    21    22    1
    30    21    15   ar
    31    13     1   ar
    32    13     6   ar
    33    29    25    1
    34    14    23    1
    35    14    24    1
    36    28    30    1
@<TRIPOS>MOLECULE
*****
 33 36 0 0 0
SMALL
GASTEIGER

@<TRIPOS>ATOM
      1 N         140.5802  142.4591  166.6983 N.ar    1  UNL1       -0.2874
      2 C         140.1813  143.0160  168.0327 C.ar    1  UNL1        0.0858
      3 C         140.6411  142.3452  169.2931 C.ar    1  UNL1        0.0705
      4 C         141.4999  141.1176  169.2190 C.ar    1  UNL1        0.1996
      5 O         141.9598  140.4469  170.4795 O.2     1  UNL1       -0.2864
      6 C         141.8988  140.5608  167.8846 C.ar    1  UNL1        0.0582
      7 C         142.7576  139.3331  167.8105 C.ar    1  UNL1        0.0340
      8 C         143.1565  138.7763  166.4761 C.ar    1  UNL1        0.1371
      9 F         144.0152  137.5487  166.4020 F       1  UNL1       -0.2045
     10 C         142.6966  139.4470  165.2156 C.ar    1  UNL1        0.0171
     11 C         141.8378  140.6746  165.2897 C.ar    1  UNL1        0.0720
     12 CL        141.3779  141.3454  164.0293 Cl      1  UNL1       -0.0810
     13 C         141.4389  141.2315  166.6242 C.ar    1  UNL1        0.0788
     14 N         141.2791  146.0283  162.9871 N.pl3   1  UNL1       -0.3408
     15 C         140.4698  144.9145  163.5822 C.ar    1  UNL1        0.1548
     16 N         140.9296  144.2437  164.8427 N.ar    1  UNL1       -0.2091
     17 C         140.1203  143.1299  165.4378 C.ar    1  UNL1        0.1769
     18 C         138.8510  142.6867  164.7725 C.ar    1  UNL1        0.1767
     19 F         138.0417  141.5728  165.3677 F       1  UNL1       -0.2009
     20 C         138.3912  143.3574  163.5121 C.ar    1  UNL1        0.0652
     21 C         139.2005  144.4713  162.9170 C.ar    1  UNL1        0.1734
     22 F         138.7406  145.1420  161.6566 F       1  UNL1       -0.2012
     23 H         142.1122  146.3192  163.4238 H       1  UNL1        0.1438
     24 H         140.9773  146.4686  162.1599 H       1  UNL1        0.1438
     25 C         143.0955  138.8902  163.8812 C.3     1  UNL1        0.0302
     26 C         142.4533  137.9795  162.8770 C.3     1  UNL1        0.0338
     27 C         143.6596  138.1026  161.9940 C.3     1  UNL1        0.1112
     28 O         144.0585  137.5457  160.6595 O.3     1  UNL1       -0.3844
     29 C         144.3018  139.0132  162.9982 C.3     1  UNL1        0.0338
     30 H         144.9414  137.8713  160.4241 H       1  UNL1        0.2103
     31 C         140.2423  142.9021  170.6276 C.2     1  UNL1        0.0774
     32 O         140.4399  142.0858  171.8703 O.co2   1  UNL1       -0.5444
     33 O         139.6457  144.2753  170.7193 O.co2   1  UNL1       -0.5444
@<TRIPOS>UNITY_ATOM_ATTR
32 1
charge -1
@<TRIPOS>BOND
     1    14    15    1
     2    15    16   ar
     3    16    17   ar
     4    17     1    1
     5     1     2   ar
     6     2     3   ar
     7     3    31    1
     8    31    32   ar
     9    31    33   ar
    10     3     4   ar
    11     4     5    2
    12     4     6   ar
    13     6     7   ar
    14     7     8   ar
    15     8     9    1
    16     8    10   ar
    17    25    10    1
    18    25    26    1
    19    26    27    1
    20    27    28    1
    21    27    29    1
    22    10    11   ar
    23    11    12    1
    24    11    13   ar
    25    17    18   ar
    26    18    19    1
    27    18    20   ar
    28    20    21   ar
    29    21    22    1
    30    21    15   ar
    31    13     1   ar
    32    13     6   ar
    33    29    25    1
    34    14    23    1
    35    14    24    1
    36    28    30    1
@<TRIPOS>MOLECULE
*****
 33 36 0 0 0
SMALL
GASTEIGER

@<TRIPOS>ATOM
      1 N         140.2764  140.4480  166.1970 N.ar    1  UNL1       -0.2874
      2 C         139.6280  140.2989  167.5414 C.ar    1  UNL1        0.0858
      3 C         140.2299  140.9661  168.7424 C.ar    1  UNL1        0.0705
      4 C         141.4802  141.7824  168.5991 C.ar    1  UNL1        0.1996
      5 O         142.0821  142.4496  169.8002 O.2     1  UNL1       -0.2864
      6 C         142.1286  141.9314  167.2547 C.ar    1  UNL1        0.0582
      7 C         143.3788  142.7477  167.1114 C.ar    1  UNL1        0.0340
      8 C         144.0272  142.8967  165.7670 C.ar    1  UNL1        0.1371
      9 F         145.2775  143.7130  165.6236 F       1  UNL1       -0.2045
     10 C         143.4253  142.2295  164.5659 C.ar    1  UNL1        0.0171
     11 C         142.1750  141.4133  164.7092 C.ar    1  UNL1        0.0720
     12 CL        141.5730  140.7461  163.5082 Cl      1  UNL1       -0.0810
     13 C         141.5266  141.2642  166.0537 C.ar    1  UNL1        0.0788
     14 N         137.0443  140.5678  162.1301 N.pl3   1  UNL1       -0.3408
     15 C         138.0584  139.8407  162.9625 C.ar    1  UNL1        0.1548
     16 N         138.6603  140.5079  164.1636 N.ar    1  UNL1       -0.2091
     17 C         139.6744  139.7808  164.9959 C.ar    1  UNL1        0.1769
     18 C         140.0867  138.3865  164.6272 C.ar    1  UNL1        0.1767
     19 F         141.1008  137.6594  165.4597 F       1  UNL1       -0.2009
     20 C         139.4848  137.7193  163.4262 C.ar    1  UNL1        0.0652
     21 C         138.4706  138.4464  162.5938 C.ar    1  UNL1        0.1734
     22 F         137.8688  137.7792  161.3927 F       1  UNL1       -0.2012
     23 H         136.7737  141.4829  162.3721 H       1  UNL1        0.1438
     24 H         136.6492  140.1299  161.3418 H       1  UNL1        0.1438
     25 C         144.0736  142.3786  163.2215 C.3     1  UNL1        0.0302
     26 C         144.1608  143.4752  162.2018 C.3     1  UNL1        0.0338
     27 C         144.9905  142.5894  161.3202 C.3     1  UNL1        0.1112
     28 O         145.6389  142.7384  159.9758 O.3     1  UNL1       -0.3844
     29 C         144.9033  141.4928  162.3400 C.3     1  UNL1        0.0338
     30 H         146.0987  141.9159  159.7456 H       1  UNL1        0.2103
     31 C         139.5816  140.8171  170.0869 C.2     1  UNL1        0.0774
     32 O         139.6257  139.4975  170.7987 O.co2   1  UNL1       -0.5444
     33 O         138.8892  141.9877  170.7195 O.co2   1  UNL1       -0.5444
@<TRIPOS>UNITY_ATOM_ATTR
32 1
charge -1
@<TRIPOS>BOND
     1    14    15    1
     2    15    16   ar
     3    16    17   ar
     4    17     1    1
     5     1     2   ar
     6     2     3   ar
     7     3    31    1
     8    31    32   ar
     9    31    33   ar
    10     3     4   ar
    11     4     5    2
    12     4     6   ar
    13     6     7   ar
    14     7     8   ar
    15     8     9    1
    16     8    10   ar
    17    25    10    1
    18    25    26    1
    19    26    27    1
    20    27    28    1
    21    27    29    1
    22    10    11   ar
    23    11    12    1
    24    11    13   ar
    25    17    18   ar
    26    18    19    1
    27    18    20   ar
    28    20    21   ar
    29    21    22    1
    30    21    15   ar
    31    13     1   ar
    32    13     6   ar
    33    29    25    1
    34    14    23    1
    35    14    24    1
    36    28    30    1
@<TRIPOS>MOLECULE
*****
 33 36 0 0 0
SMALL
GASTEIGER

@<TRIPOS>ATOM
      1 N         140.4224  141.1195  166.8126 N.ar    1  UNL1       -0.2874
      2 C         140.0378  141.1268  168.2624 C.ar    1  UNL1        0.0858
      3 C         140.8464  140.3476  169.2567 C.ar    1  UNL1        0.0705
      4 C         142.0396  139.5609  168.8013 C.ar    1  UNL1        0.1996
      5 O         142.8482  138.7816  169.7958 O.2     1  UNL1       -0.2864
      6 C         142.4242  139.5535  167.3515 C.ar    1  UNL1        0.0582
      7 C         143.6174  138.7668  166.8961 C.ar    1  UNL1        0.0340
      8 C         144.0020  138.7594  165.4463 C.ar    1  UNL1        0.1371
      9 F         145.1952  137.9728  164.9909 F       1  UNL1       -0.2045
     10 C         143.1934  139.5388  164.4518 C.ar    1  UNL1        0.0171
     11 C         142.0002  140.3254  164.9072 C.ar    1  UNL1        0.0720
     12 CL        141.1916  141.1047  163.9129 Cl      1  UNL1       -0.0810
     13 C         141.6156  140.3328  166.3571 C.ar    1  UNL1        0.0788
     14 N         139.6108  145.4752  164.0979 N.pl3   1  UNL1       -0.3408
     15 C         139.2080  144.0767  164.4608 C.ar    1  UNL1        0.1548
     16 N         140.0166  143.2973  165.4552 N.ar    1  UNL1       -0.2091
     17 C         139.6138  141.8988  165.8181 C.ar    1  UNL1        0.1769
     18 C         138.4023  141.2795  165.1865 C.ar    1  UNL1        0.1767
     19 F         137.9995  139.8808  165.5494 F       1  UNL1       -0.2009
     20 C         137.5938  142.0587  164.1921 C.ar    1  UNL1        0.0652
     21 C         137.9966  143.4573  163.8292 C.ar    1  UNL1        0.1734
     22 F         137.1880  144.2366  162.8348 F       1  UNL1       -0.2012
     23 H         140.4059  145.8817  164.5124 H       1  UNL1        0.1438
     24 H         139.0801  145.9867  163.4452 H       1  UNL1        0.1438
     25 C         143.5780  139.5314  163.0020 C.3     1  UNL1        0.0302
     26 C         144.4191  140.4091  162.1233 C.3     1  UNL1        0.0338
     27 C         144.1219  139.5209  160.9516 C.3     1  UNL1        0.1112
     28 O         144.5065  139.5135  159.5017 O.3     1  UNL1       -0.3844
     29 C         143.2808  138.6432  161.8303 C.3     1  UNL1        0.0338
     30 H         144.0987  138.7506  159.0630 H       1  UNL1        0.2103
     31 C         140.4618  140.3549  170.7066 C.2     1  UNL1        0.0774
     32 O         141.2465  141.1758  171.6866 O.co2   1  UNL1       -0.5444
     33 O         139.2924  139.5414  171.1765 O.co2   1  UNL1       -0.5444
@<TRIPOS>UNITY_ATOM_ATTR
32 1
charge -1
@<TRIPOS>BOND
     1    14    15    1
     2    15    16   ar
     3    16    17   ar
     4    17     1    1
     5     1     2   ar
     6     2     3   ar
     7     3    31    1
     8    31    32   ar
     9    31    33   ar
    10     3     4   ar
    11     4     5    2
    12     4     6   ar
    13     6     7   ar
    14     7     8   ar
    15     8     9    1
    16     8    10   ar
    17    25    10    1
    18    25    26    1
    19    26    27    1
    20    27    28    1
    21    27    29    1
    22    10    11   ar
    23    11    12    1
    24    11    13   ar
    25    17    18   ar
    26    18    19    1
    27    18    20   ar
    28    20    21   ar
    29    21    22    1
    30    21    15   ar
    31    13     1   ar
    32    13     6   ar
    33    29    25    1
    34    14    23    1
    35    14    24    1
    36    28    30    1
@<TRIPOS>MOLECULE
*****
 33 36 0 0 0
SMALL
GASTEIGER

@<TRIPOS>ATOM
      1 N         140.4571  141.1191  163.1356 N.ar    1  UNL1       -0.2874
      2 C         140.1494  140.8537  161.6917 C.ar    1  UNL1        0.0858
      3 C         139.1955  139.7583  161.3172 C.ar    1  UNL1        0.0705
      4 C         138.5494  138.9284  162.3866 C.ar    1  UNL1        0.1996
      5 O         137.5954  137.8330  162.0121 O.2     1  UNL1       -0.2864
      6 C         138.8571  139.1937  163.8305 C.ar    1  UNL1        0.0582
      7 C         138.2109  138.3638  164.8999 C.ar    1  UNL1        0.0340
      8 C         138.5186  138.6292  166.3438 C.ar    1  UNL1        0.1371
      9 F         137.8725  137.7992  167.4132 F       1  UNL1       -0.2045
     10 C         139.4726  139.7246  166.7183 C.ar    1  UNL1        0.0171
     11 C         140.1187  140.5545  165.6489 C.ar    1  UNL1        0.0720
     12 CL        141.0726  141.6499  166.0234 Cl      1  UNL1       -0.0810
     13 C         139.8110  140.2891  164.2050 C.ar    1  UNL1        0.0788
     14 N         145.2674  142.6879  164.3188 N.pl3   1  UNL1       -0.3408
     15 C         143.8162  142.9989  164.1017 C.ar    1  UNL1        0.1548
     16 N         142.8623  141.9035  163.7272 N.ar    1  UNL1       -0.2091
     17 C         141.4111  142.2145  163.5101 C.ar    1  UNL1        0.1769
     18 C         140.9137  143.6208  163.6675 C.ar    1  UNL1        0.1767
     19 F         139.4624  143.9318  163.4504 F       1  UNL1       -0.2009
     20 C         141.8675  144.7162  164.0420 C.ar    1  UNL1        0.0652
     21 C         143.3188  144.4052  164.2591 C.ar    1  UNL1        0.1734
     22 F         144.2727  145.5006  164.6336 F       1  UNL1       -0.2012
     23 H         145.5939  141.7648  164.2155 H       1  UNL1        0.1438
     24 H         145.8935  143.4068  164.5647 H       1  UNL1        0.1438
     25 C         139.7803  139.9899  168.1622 C.3     1  UNL1        0.0302
     26 C         141.0234  139.9767  169.0015 C.3     1  UNL1        0.0338
     27 C         140.2155  140.3653  170.2042 C.3     1  UNL1        0.1112
     28 O         140.5232  140.6307  171.6482 O.3     1  UNL1       -0.3844
     29 C         138.9724  140.3785  169.3648 C.3     1  UNL1        0.0338
     30 H         139.7053  140.8611  172.1160 H       1  UNL1        0.2103
     31 C         138.8877  139.4929  159.8733 C.2     1  UNL1        0.0774
     32 O         137.6494  140.0681  159.2523 O.co2   1  UNL1       -0.5444
     33 O         139.8183  138.6522  159.0503 O.co2   1  UNL1       -0.5444
@<TRIPOS>UNITY_ATOM_ATTR
32 1
charge -1
@<TRIPOS>BOND
     1    14    15    1
     2    15    16   ar
     3    16    17   ar
     4    17     1    1
     5     1     2   ar
     6     2     3   ar
     7     3    31    1
     8    31    32   ar
     9    31    33   ar
    10     3     4   ar
    11     4     5    2
    12     4     6   ar
    13     6     7   ar
    14     7     8   ar
    15     8     9    1
    16     8    10   ar
    17    25    10    1
    18    25    26    1
    19    26    27    1
    20    27    28    1
    21    27    29    1
    22    10    11   ar
    23    11    12    1
    24    11    13   ar
    25    17    18   ar
    26    18    19    1
    27    18    20   ar
    28    20    21   ar
    29    21    22    1
    30    21    15   ar
    31    13     1   ar
    32    13     6   ar
    33    29    25    1
    34    14    23    1
    35    14    24    1
    36    28    30    1
@<TRIPOS>MOLECULE
*****
 33 36 0 0 0
SMALL
GASTEIGER

@<TRIPOS>ATOM
      1 N         141.9985  140.4483  165.9945 N.ar    1  UNL1       -0.2874
      2 C         142.1603  139.7414  167.3076 C.ar    1  UNL1        0.0858
      3 C         141.5023  140.2881  168.5397 C.ar    1  UNL1        0.0705
      4 C         140.6825  141.5416  168.4588 C.ar    1  UNL1        0.1996
      5 O         140.0245  142.0883  169.6910 O.2     1  UNL1       -0.2864
      6 C         140.5207  142.2485  167.1457 C.ar    1  UNL1        0.0582
      7 C         139.7009  143.5020  167.0648 C.ar    1  UNL1        0.0340
      8 C         139.5390  144.2089  165.7518 C.ar    1  UNL1        0.1371
      9 F         138.7192  145.4624  165.6708 F       1  UNL1       -0.2045
     10 C         140.1971  143.6622  164.5196 C.ar    1  UNL1        0.0171
     11 C         141.0169  142.4087  164.6005 C.ar    1  UNL1        0.0720
     12 CL        141.6749  141.8620  163.3684 Cl      1  UNL1       -0.0810
     13 C         141.1787  141.7018  165.9136 C.ar    1  UNL1        0.0788
     14 N         141.9506  137.2206  161.9227 N.pl3   1  UNL1       -0.3408
     15 C         142.6326  138.2878  162.7264 C.ar    1  UNL1        0.1548
     16 N         141.9746  138.8344  163.9586 N.ar    1  UNL1       -0.2091
     17 C         142.6565  139.9016  164.7623 C.ar    1  UNL1        0.1769
     18 C         143.9965  140.4222  164.3339 C.ar    1  UNL1        0.1767
     19 F         144.6784  141.4894  165.1378 F       1  UNL1       -0.2009
     20 C         144.6545  139.8756  163.1018 C.ar    1  UNL1        0.0652
     21 C         143.9725  138.8083  162.2980 C.ar    1  UNL1        0.1734
     22 F         144.6305  138.2617  161.0659 F       1  UNL1       -0.2012
     23 H         141.0712  136.8789  162.2039 H       1  UNL1        0.1438
     24 H         142.3825  136.8618  161.1140 H       1  UNL1        0.1438
     25 C         140.0352  144.3691  163.2065 C.3     1  UNL1        0.0302
     26 C         140.8075  145.4200  162.4654 C.3     1  UNL1        0.0338
     27 C         139.8064  145.3688  161.3496 C.3     1  UNL1        0.1112
     28 O         139.6445  146.0757  160.0364 O.3     1  UNL1       -0.3844
     29 C         139.0341  144.3179  162.0906 C.3     1  UNL1        0.0338
     30 H         138.8451  145.7529  159.5919 H       1  UNL1        0.2103
     31 C         141.6641  139.5812  169.8528 C.2     1  UNL1        0.0774
     32 O         143.0339  139.2232  170.3481 O.co2   1  UNL1       -0.5444
     33 O         140.4560  139.2324  170.6707 O.co2   1  UNL1       -0.5444
@<TRIPOS>UNITY_ATOM_ATTR
32 1
charge -1
@<TRIPOS>BOND
     1    14    15    1
     2    15    16   ar
     3    16    17   ar
     4    17     1    1
     5     1     2   ar
     6     2     3   ar
     7     3    31    1
     8    31    32   ar
     9    31    33   ar
    10     3     4   ar
    11     4     5    2
    12     4     6   ar
    13     6     7   ar
    14     7     8   ar
    15     8     9    1
    16     8    10   ar
    17    25    10    1
    18    25    26    1
    19    26    27    1
    20    27    28    1
    21    27    29    1
    22    10    11   ar
    23    11    12    1
    24    11    13   ar
    25    17    18   ar
    26    18    19    1
    27    18    20   ar
    28    20    21   ar
    29    21    22    1
    30    21    15   ar
    31    13     1   ar
    32    13     6   ar
    33    29    25    1
    34    14    23    1
    35    14    24    1
    36    28    30    1
@<TRIPOS>MOLECULE
*****
 33 36 0 0 0
SMALL
GASTEIGER

@<TRIPOS>ATOM
      1 N         140.8290  141.6383  165.8674 N.ar    1  UNL1       -0.2874
      2 C         140.6929  141.6407  167.3611 C.ar    1  UNL1        0.0858
      3 C         139.8234  140.6220  168.0366 C.ar    1  UNL1        0.0705
      4 C         139.0900  139.6010  167.2182 C.ar    1  UNL1        0.1996
      5 O         138.2204  138.5824  167.8938 O.2     1  UNL1       -0.2864
      6 C         139.2261  139.5987  165.7245 C.ar    1  UNL1        0.0582
      7 C         138.4927  138.5777  164.9061 C.ar    1  UNL1        0.0340
      8 C         138.6288  138.5753  163.4124 C.ar    1  UNL1        0.1371
      9 F         137.8954  137.5543  162.5940 F       1  UNL1       -0.2045
     10 C         139.4984  139.5940  162.7368 C.ar    1  UNL1        0.0171
     11 C         140.2318  140.6150  163.5552 C.ar    1  UNL1        0.0720
     12 CL        141.1013  141.6336  162.8797 Cl      1  UNL1       -0.0810
     13 C         140.0956  140.6173  165.0490 C.ar    1  UNL1        0.0788
     14 N         141.3406  146.1336  163.3118 N.pl3   1  UNL1       -0.3408
     15 C         141.9544  144.9046  163.9141 C.ar    1  UNL1        0.1548
     16 N         141.0848  143.8860  164.5896 N.ar    1  UNL1       -0.2091
     17 C         141.6986  142.6570  165.1918 C.ar    1  UNL1        0.1769
     18 C         143.1820  142.4465  165.1186 C.ar    1  UNL1        0.1767
     19 F         143.7958  141.2174  165.7209 F       1  UNL1       -0.2009
     20 C         144.0515  143.4651  164.4431 C.ar    1  UNL1        0.0652
     21 C         143.4377  144.6942  163.8408 C.ar    1  UNL1        0.1734
     22 F         144.3073  145.7128  163.1654 F       1  UNL1       -0.2012
     23 H         140.3670  146.2717  163.3599 H       1  UNL1        0.1438
     24 H         141.9113  146.8022  162.8685 H       1  UNL1        0.1438
     25 C         139.6345  139.5916  161.2431 C.3     1  UNL1        0.0302
     26 C         139.0060  140.3614  160.1195 C.3     1  UNL1        0.0338
     27 C         139.8270  139.5882  159.1305 C.3     1  UNL1        0.1112
     28 O         139.9632  139.5858  157.6366 O.3     1  UNL1       -0.3844
     29 C         140.4555  138.8184  160.2540 C.3     1  UNL1        0.0338
     30 H         140.6174  138.9201  157.3727 H       1  UNL1        0.2103
     31 C         139.6872  140.6244  169.5304 C.2     1  UNL1        0.0774
     32 O         138.3769  140.9879  170.1635 O.co2   1  UNL1       -0.5444
     33 O         140.8614  140.2632  170.3911 O.co2   1  UNL1       -0.5444
@<TRIPOS>UNITY_ATOM_ATTR
32 1
charge -1
@<TRIPOS>BOND
     1    14    15    1
     2    15    16   ar
     3    16    17   ar
     4    17     1    1
     5     1     2   ar
     6     2     3   ar
     7     3    31    1
     8    31    32   ar
     9    31    33   ar
    10     3     4   ar
    11     4     5    2
    12     4     6   ar
    13     6     7   ar
    14     7     8   ar
    15     8     9    1
    16     8    10   ar
    17    25    10    1
    18    25    26    1
    19    26    27    1
    20    27    28    1
    21    27    29    1
    22    10    11   ar
    23    11    12    1
    24    11    13   ar
    25    17    18   ar
    26    18    19    1
    27    18    20   ar
    28    20    21   ar
    29    21    22    1
    30    21    15   ar
    31    13     1   ar
    32    13     6   ar
    33    29    25    1
    34    14    23    1
    35    14    24    1
    36    28    30    1
