@<TRIPOS>MOLECULE
*****
 40 43 0 0 0
SMALL
GASTEIGER

@<TRIPOS>ATOM
      1 C         142.5617  141.0965  160.6066 C.3     1  UNL1        0.0759
      2 C         141.0631  141.1582  160.6292 C.3     1  UNL1        0.0371
      3 C         140.3700  142.4631  160.8883 C.3     1  UNL1        0.0737
      4 N         141.1755  143.7062  161.1246 N.3     1  UNL1       -0.2738
      5 C         142.6741  143.6445  161.1019 C.3     1  UNL1        0.0737
      6 C         143.3672  142.3397  160.8429 C.3     1  UNL1        0.0371
      7 C         140.4824  145.0110  161.3836 C.3     1  UNL1        0.0592
      8 C         140.1055  145.9007  160.2362 C.3     1  UNL1        0.0174
      9 C         140.1662  145.4261  162.7899 C.3     1  UNL1        0.0372
     10 C         140.7526  144.6698  163.9449 C.3     1  UNL1        0.0911
     11 N         139.9514  143.5993  164.6248 N.am    1  UNL1       -0.3008
     12 C         140.4749  142.1950  164.6852 C.2     1  UNL1        0.2467
     13 O         141.7995  141.8610  164.0657 O.2     1  UNL1       -0.2701
     14 H         139.0820  143.8185  165.0313 H       1  UNL1        0.1497
     15 C         139.6736  141.1246  165.3651 C.ar    1  UNL1        0.0630
     16 C         139.9756  140.7499  166.7858 C.ar    1  UNL1       -0.0140
     17 C         141.0788  141.4457  167.5267 C.3     1  UNL1        0.0313
     18 C         139.1744  139.6795  167.4657 C.ar    1  UNL1        0.0267
     19 C         138.0712  138.9837  166.7249 C.ar    1  UNL1        0.1376
     20 CL        137.2700  137.9133  167.4048 Cl      1  UNL1       -0.0614
     21 N         137.7692  139.3583  165.3042 N.ar    1  UNL1       -0.2381
     22 C         138.5704  140.4288  164.6242 C.ar    1  UNL1        0.0643
     23 C         138.2684  140.8034  163.2035 C.3     1  UNL1        0.0523
     24 N         143.2548  139.7917  160.3476 N.pl3   1  UNL1       -0.3051
     25 C         142.9519  137.8475  156.3006 C.ar    1  UNL1        0.1388
     26 C         143.3874  139.2783  156.4146 C.ar    1  UNL1        0.0382
     27 C         143.4884  139.9264  157.7636 C.ar    1  UNL1        0.0176
     28 C         143.1538  139.1436  158.9986 C.ar    1  UNL1        0.0482
     29 C         142.7183  137.7128  158.8846 C.ar    1  UNL1        0.0176
     30 C         142.6173  137.0647  157.5356 C.ar    1  UNL1        0.0382
     31 C         143.2026  135.7505  154.7874 C.3     1  UNL1        0.2525
     32 O         142.8509  137.1994  154.9516 O.3     1  UNL1       -0.4714
     33 C         144.0489  139.1351  161.4376 C.3     1  UNL1        0.1189
     34 C         143.3882  138.7785  162.7362 C.ar    1  UNL1        0.0128
     35 C         142.1561  137.9230  162.7408 C.ar    1  UNL1        0.0959
     36 N         141.4954  137.5664  164.0393 N.ar    1  UNL1       -0.2426
     37 C         142.0668  138.0654  165.3334 C.ar    1  UNL1        0.0985
     38 C         143.2989  138.9209  165.3289 C.ar    1  UNL1        0.0162
     39 C         143.9596  139.2774  164.0302 C.ar    1  UNL1       -0.0212
     40 C         145.1917  140.1330  164.0257 C.3     1  UNL1        0.0309
@<TRIPOS>BOND
     1    31    32    1
     2    32    25    1
     3    25    26   ar
     4    26    27   ar
     5    27    28   ar
     6    28    24    1
     7    24    33    1
     8    33    34    1
     9    34    35   ar
    10    35    36   ar
    11    36    37   ar
    12    37    38   ar
    13    38    39   ar
    14    39    40    1
    15    24     1    1
    16     1     2    1
    17     2     3    1
    18     3     4    1
    19     4     7    1
    20     7     8    1
    21     7     9    1
    22     9    10    1
    23    10    11    1
    24    11    12   am
    25    12    13    2
    26    12    15    1
    27    15    16   ar
    28    16    17    1
    29    16    18   ar
    30    18    19   ar
    31    19    20    1
    32    19    21   ar
    33    21    22   ar
    34    22    23    1
    35     4     5    1
    36     5     6    1
    37    28    29   ar
    38    29    30   ar
    39    30    25   ar
    40    39    34   ar
    41     6     1    1
    42    22    15   ar
    43    11    14    1
@<TRIPOS>MOLECULE
*****
 40 43 0 0 0
SMALL
GASTEIGER

@<TRIPOS>ATOM
      1 C         142.2667  142.0054  164.3986 C.3     1  UNL1        0.0759
      2 C         143.0749  141.2634  165.4215 C.3     1  UNL1        0.0371
      3 C         142.6769  141.3067  166.8672 C.3     1  UNL1        0.0737
      4 N         141.4709  142.0920  167.2899 N.3     1  UNL1       -0.2738
      5 C         140.6627  142.8340  166.2670 C.3     1  UNL1        0.0737
      6 C         141.0606  142.7907  164.8214 C.3     1  UNL1        0.0371
      7 C         141.0730  142.1352  168.7356 C.3     1  UNL1        0.0592
      8 C         141.8627  142.9621  169.7064 C.3     1  UNL1        0.0174
      9 C         139.8853  141.3516  169.2103 C.3     1  UNL1        0.0372
     10 C         139.4764  140.1003  168.4914 C.3     1  UNL1        0.0911
     11 N         139.5657  140.0314  166.9956 N.am    1  UNL1       -0.3008
     12 C         138.4925  139.3363  166.2114 C.2     1  UNL1        0.2467
     13 O         137.3299  138.7101  166.9230 O.2     1  UNL1       -0.2701
     14 H         140.3287  140.4424  166.5286 H       1  UNL1        0.1497
     15 C         138.5818  139.2674  164.7157 C.ar    1  UNL1        0.0630
     16 C         139.1249  138.0363  164.0527 C.ar    1  UNL1       -0.0140
     17 C         139.5786  136.8742  164.8854 C.3     1  UNL1        0.0313
     18 C         139.2142  137.9675  162.5569 C.ar    1  UNL1        0.0267
     19 C         138.7605  139.1297  161.7242 C.ar    1  UNL1        0.1376
     20 CL        138.8499  139.0607  160.2284 Cl      1  UNL1       -0.0614
     21 N         138.2175  140.3607  162.3872 N.ar    1  UNL1       -0.2381
     22 C         138.1281  140.4296  163.8830 C.ar    1  UNL1        0.0643
     23 C         137.5851  141.6607  164.5459 C.3     1  UNL1        0.0523
     24 N         142.6646  141.9622  162.9530 N.pl3   1  UNL1       -0.3051
     25 C         140.5108  144.5285  159.9488 C.ar    1  UNL1        0.1388
     26 C         141.5932  145.1205  160.8019 C.ar    1  UNL1        0.0382
     27 C         142.3111  144.2650  161.8033 C.ar    1  UNL1        0.0176
     28 C         141.9466  142.8176  161.9516 C.ar    1  UNL1        0.0482
     29 C         140.8642  142.2256  161.0986 C.ar    1  UNL1        0.0176
     30 C         140.1462  143.0810  160.0971 C.ar    1  UNL1        0.0382
     31 C         139.9730  145.1321  157.4797 C.3     1  UNL1        0.2525
     32 O         139.7928  145.3839  158.9474 O.3     1  UNL1       -0.4714
     33 C         143.7804  141.0635  162.5089 C.3     1  UNL1        0.1189
     34 C         143.5204  139.9911  161.4928 C.ar    1  UNL1        0.0128
     35 C         143.7935  140.2513  160.0410 C.ar    1  UNL1        0.0959
     36 N         143.5336  139.1790  159.0250 N.ar    1  UNL1       -0.2426
     37 C         143.0005  137.8462  159.4607 C.ar    1  UNL1        0.0985
     38 C         142.7274  137.5860  160.9125 C.ar    1  UNL1        0.0162
     39 C         142.9873  138.6584  161.9285 C.ar    1  UNL1       -0.0212
     40 C         142.7142  138.3982  163.3803 C.3     1  UNL1        0.0309
@<TRIPOS>BOND
     1    31    32    1
     2    32    25    1
     3    25    26   ar
     4    26    27   ar
     5    27    28   ar
     6    28    24    1
     7    24    33    1
     8    33    34    1
     9    34    35   ar
    10    35    36   ar
    11    36    37   ar
    12    37    38   ar
    13    38    39   ar
    14    39    40    1
    15    24     1    1
    16     1     2    1
    17     2     3    1
    18     3     4    1
    19     4     7    1
    20     7     8    1
    21     7     9    1
    22     9    10    1
    23    10    11    1
    24    11    12   am
    25    12    13    2
    26    12    15    1
    27    15    16   ar
    28    16    17    1
    29    16    18   ar
    30    18    19   ar
    31    19    20    1
    32    19    21   ar
    33    21    22   ar
    34    22    23    1
    35     4     5    1
    36     5     6    1
    37    28    29   ar
    38    29    30   ar
    39    30    25   ar
    40    39    34   ar
    41     6     1    1
    42    22    15   ar
    43    11    14    1
@<TRIPOS>MOLECULE
*****
 40 43 0 0 0
SMALL
GASTEIGER

@<TRIPOS>ATOM
      1 C         141.4957  143.1215  160.6939 C.3     1  UNL1        0.0759
      2 C         142.8338  142.8671  161.3221 C.3     1  UNL1        0.0371
      3 C         143.2156  141.4770  161.7368 C.3     1  UNL1        0.0737
      4 N         142.2592  140.3414  161.5234 N.3     1  UNL1       -0.2738
      5 C         140.9210  140.5957  160.8952 C.3     1  UNL1        0.0737
      6 C         140.5393  141.9857  160.4805 C.3     1  UNL1        0.0371
      7 C         142.6410  138.9513  161.9382 C.3     1  UNL1        0.0592
      8 C         143.9980  138.6885  162.5207 C.3     1  UNL1        0.0174
      9 C         141.6657  137.8241  161.7704 C.3     1  UNL1        0.0372
     10 C         140.5567  137.6378  162.7631 C.3     1  UNL1        0.0911
     11 N         140.6877  138.1990  164.1480 N.am    1  UNL1       -0.3008
     12 C         139.8436  139.3658  164.5675 C.2     1  UNL1        0.2467
     13 O         138.8684  139.9715  163.6020 O.2     1  UNL1       -0.2701
     14 H         141.3277  137.8014  164.7817 H       1  UNL1        0.1497
     15 C         139.9746  139.9268  165.9524 C.ar    1  UNL1        0.0630
     16 C         139.0277  139.4908  167.0310 C.ar    1  UNL1       -0.0140
     17 C         137.9498  138.4937  166.7246 C.3     1  UNL1        0.0313
     18 C         139.1588  140.0519  168.4159 C.ar    1  UNL1        0.0267
     19 C         140.2367  141.0490  168.7223 C.ar    1  UNL1        0.1376
     20 CL        140.3677  141.6101  170.1072 Cl      1  UNL1       -0.0614
     21 N         141.1835  141.4850  167.6437 N.ar    1  UNL1       -0.2381
     22 C         141.0525  140.9240  166.2588 C.ar    1  UNL1        0.0643
     23 C         141.9994  141.3600  165.1802 C.3     1  UNL1        0.0523
     24 N         141.1139  144.5115  160.2791 N.pl3   1  UNL1       -0.3051
     25 C         141.2904  145.6935  155.9407 C.ar    1  UNL1        0.1388
     26 C         142.3299  144.7744  156.5105 C.ar    1  UNL1        0.0382
     27 C         142.2711  144.3804  157.9567 C.ar    1  UNL1        0.0176
     28 C         141.1727  144.9055  158.8330 C.ar    1  UNL1        0.0482
     29 C         140.1333  145.8245  158.2631 C.ar    1  UNL1        0.0176
     30 C         140.1921  146.2185  156.8170 C.ar    1  UNL1        0.0382
     31 C         140.5137  147.2279  153.9933 C.3     1  UNL1        0.2525
     32 O         141.3493  146.0875  154.4946 O.3     1  UNL1       -0.4714
     33 C         140.6733  145.5075  161.3105 C.3     1  UNL1        0.1189
     34 C         139.9025  145.0504  162.5134 C.ar    1  UNL1        0.0128
     35 C         138.4368  144.7533  162.3967 C.ar    1  UNL1        0.0959
     36 N         137.6661  144.2962  163.5995 N.ar    1  UNL1       -0.2426
     37 C         138.3610  144.1362  164.9193 C.ar    1  UNL1        0.0985
     38 C         139.8266  144.4332  165.0360 C.ar    1  UNL1        0.0162
     39 C         140.5974  144.8904  163.8331 C.ar    1  UNL1       -0.0212
     40 C         142.0630  145.1874  163.9498 C.3     1  UNL1        0.0309
@<TRIPOS>BOND
     1    31    32    1
     2    32    25    1
     3    25    26   ar
     4    26    27   ar
     5    27    28   ar
     6    28    24    1
     7    24    33    1
     8    33    34    1
     9    34    35   ar
    10    35    36   ar
    11    36    37   ar
    12    37    38   ar
    13    38    39   ar
    14    39    40    1
    15    24     1    1
    16     1     2    1
    17     2     3    1
    18     3     4    1
    19     4     7    1
    20     7     8    1
    21     7     9    1
    22     9    10    1
    23    10    11    1
    24    11    12   am
    25    12    13    2
    26    12    15    1
    27    15    16   ar
    28    16    17    1
    29    16    18   ar
    30    18    19   ar
    31    19    20    1
    32    19    21   ar
    33    21    22   ar
    34    22    23    1
    35     4     5    1
    36     5     6    1
    37    28    29   ar
    38    29    30   ar
    39    30    25   ar
    40    39    34   ar
    41     6     1    1
    42    22    15   ar
    43    11    14    1
@<TRIPOS>MOLECULE
*****
 40 43 0 0 0
SMALL
GASTEIGER

@<TRIPOS>ATOM
      1 C         142.0966  140.8633  160.9523 C.3     1  UNL1        0.0759
      2 C         142.6270  142.1237  161.5689 C.3     1  UNL1        0.0371
      3 C         141.6798  143.2036  162.0008 C.3     1  UNL1        0.0737
      4 N         140.2022  143.0232  161.8161 N.3     1  UNL1       -0.2738
      5 C         139.6718  141.7628  161.1996 C.3     1  UNL1        0.0737
      6 C         140.6190  140.6829  160.7677 C.3     1  UNL1        0.0371
      7 C         139.2550  144.1032  162.2480 C.3     1  UNL1        0.0592
      8 C         139.6180  145.5444  162.0452 C.3     1  UNL1        0.0174
      9 C         137.9448  143.7419  162.8827 C.3     1  UNL1        0.0372
     10 C         137.8775  142.6226  163.8790 C.3     1  UNL1        0.0911
     11 N         138.8123  142.6054  165.0521 N.am    1  UNL1       -0.3008
     12 C         139.7966  141.4848  165.2103 C.2     1  UNL1        0.2467
     13 O         139.8462  140.3812  164.1955 O.2     1  UNL1       -0.2701
     14 H         138.7797  143.3297  165.7181 H       1  UNL1        0.1497
     15 C         140.7313  141.4676  166.3833 C.ar    1  UNL1        0.0630
     16 C         141.9919  142.2800  166.3498 C.ar    1  UNL1       -0.0140
     17 C         142.3176  143.1096  165.1432 C.3     1  UNL1        0.0313
     18 C         142.9266  142.2629  167.5227 C.ar    1  UNL1        0.0267
     19 C         142.6009  141.4333  168.7293 C.ar    1  UNL1        0.1376
     20 CL        143.5357  141.4162  169.9023 Cl      1  UNL1       -0.0614
     21 N         141.3404  140.6209  168.7628 N.ar    1  UNL1       -0.2381
     22 C         140.4056  140.6381  167.5898 C.ar    1  UNL1        0.0643
     23 C         139.1451  139.8257  167.6234 C.3     1  UNL1        0.0523
     24 N         143.0438  139.7834  160.5204 N.pl3   1  UNL1       -0.3051
     25 C         143.1440  138.4665  156.2186 C.ar    1  UNL1        0.1388
     26 C         143.6073  139.8433  156.5925 C.ar    1  UNL1        0.0382
     27 C         143.5739  140.2822  158.0264 C.ar    1  UNL1        0.0176
     28 C         143.0772  139.3444  159.0865 C.ar    1  UNL1        0.0482
     29 C         142.6139  137.9677  158.7126 C.ar    1  UNL1        0.0176
     30 C         142.6473  137.5287  157.2786 C.ar    1  UNL1        0.0382
     31 C         142.6634  136.6710  154.4034 C.3     1  UNL1        0.2525
     32 O         143.1774  138.0276  154.7846 O.3     1  UNL1       -0.4714
     33 C         143.9575  139.1424  161.5225 C.3     1  UNL1        0.1189
     34 C         143.4608  138.8410  162.9054 C.ar    1  UNL1        0.0128
     35 C         142.3184  137.8887  163.1010 C.ar    1  UNL1        0.0959
     36 N         141.8216  137.5873  164.4838 N.ar    1  UNL1       -0.2426
     37 C         142.4672  138.2381  165.6712 C.ar    1  UNL1        0.0985
     38 C         143.6096  139.1904  165.4756 C.ar    1  UNL1        0.0162
     39 C         144.1063  139.4918  164.0927 C.ar    1  UNL1       -0.0212
     40 C         145.2487  140.4440  163.8971 C.3     1  UNL1        0.0309
@<TRIPOS>BOND
     1    31    32    1
     2    32    25    1
     3    25    26   ar
     4    26    27   ar
     5    27    28   ar
     6    28    24    1
     7    24    33    1
     8    33    34    1
     9    34    35   ar
    10    35    36   ar
    11    36    37   ar
    12    37    38   ar
    13    38    39   ar
    14    39    40    1
    15    24     1    1
    16     1     2    1
    17     2     3    1
    18     3     4    1
    19     4     7    1
    20     7     8    1
    21     7     9    1
    22     9    10    1
    23    10    11    1
    24    11    12   am
    25    12    13    2
    26    12    15    1
    27    15    16   ar
    28    16    17    1
    29    16    18   ar
    30    18    19   ar
    31    19    20    1
    32    19    21   ar
    33    21    22   ar
    34    22    23    1
    35     4     5    1
    36     5     6    1
    37    28    29   ar
    38    29    30   ar
    39    30    25   ar
    40    39    34   ar
    41     6     1    1
    42    22    15   ar
    43    11    14    1
@<TRIPOS>MOLECULE
*****
 40 43 0 0 0
SMALL
GASTEIGER

@<TRIPOS>ATOM
      1 C         141.5146  142.9705  164.6412 C.3     1  UNL1        0.0759
      2 C         142.9445  142.8100  165.0649 C.3     1  UNL1        0.0371
      3 C         143.2707  142.4605  166.4868 C.3     1  UNL1        0.0737
      4 N         142.1670  142.2715  167.4848 N.3     1  UNL1       -0.2738
      5 C         140.7370  142.4320  167.0610 C.3     1  UNL1        0.0737
      6 C         140.4109  142.7815  165.6392 C.3     1  UNL1        0.0371
      7 C         142.4931  141.9220  168.9066 C.3     1  UNL1        0.0592
      8 C         142.3530  142.9561  169.9842 C.3     1  UNL1        0.0174
      9 C         142.9594  140.5386  169.2508 C.3     1  UNL1        0.0372
     10 C         142.3923  139.3540  168.5261 C.3     1  UNL1        0.0911
     11 N         142.2989  139.3649  167.0290 N.am    1  UNL1       -0.3008
     12 C         143.2324  138.5205  166.2132 C.2     1  UNL1        0.2467
     13 O         144.2594  137.6653  166.8944 O.2     1  UNL1       -0.2701
     14 H         141.6249  139.9262  166.5819 H       1  UNL1        0.1497
     15 C         143.1390  138.5314  164.7162 C.ar    1  UNL1        0.0630
     16 C         142.0079  137.8242  164.0301 C.ar    1  UNL1       -0.0140
     17 C         140.9703  137.1062  164.8412 C.3     1  UNL1        0.0313
     18 C         141.9145  137.8351  162.5331 C.ar    1  UNL1        0.0267
     19 C         142.9521  138.5532  161.7221 C.ar    1  UNL1        0.1376
     20 CL        142.8586  138.5640  160.2250 Cl      1  UNL1       -0.0614
     21 N         144.0831  139.2603  162.4080 N.ar    1  UNL1       -0.2381
     22 C         144.1766  139.2495  163.9051 C.ar    1  UNL1        0.0643
     23 C         145.3077  139.9566  164.5911 C.3     1  UNL1        0.0523
     24 N         141.1884  143.3200  163.2194 N.pl3   1  UNL1       -0.3051
     25 C         138.2999  140.7800  160.8839 C.ar    1  UNL1        0.1388
     26 C         137.8046  141.9777  161.6389 C.ar    1  UNL1        0.0382
     27 C         138.7675  142.8244  162.4174 C.ar    1  UNL1        0.0176
     28 C         140.2256  142.4733  162.4409 C.ar    1  UNL1        0.0482
     29 C         140.7209  141.2756  161.6860 C.ar    1  UNL1        0.0176
     30 C         139.7580  140.4289  160.9074 C.ar    1  UNL1        0.0382
     31 C         137.0799  140.2284  158.6574 C.3     1  UNL1        0.2525
     32 O         137.3371  139.9333  160.1054 O.3     1  UNL1       -0.4714
     33 C         141.8251  144.5162  162.5762 C.3     1  UNL1        0.1189
     34 C         141.6747  144.7435  161.1011 C.ar    1  UNL1        0.0128
     35 C         142.6269  144.0939  160.1412 C.ar    1  UNL1        0.0959
     36 N         142.4765  144.3212  158.6662 N.ar    1  UNL1       -0.2426
     37 C         141.3739  145.1982  158.1510 C.ar    1  UNL1        0.0985
     38 C         140.4218  145.8478  159.1109 C.ar    1  UNL1        0.0162
     39 C         140.5722  145.6204  160.5860 C.ar    1  UNL1       -0.0212
     40 C         139.6200  146.2700  161.5459 C.3     1  UNL1        0.0309
@<TRIPOS>BOND
     1    31    32    1
     2    32    25    1
     3    25    26   ar
     4    26    27   ar
     5    27    28   ar
     6    28    24    1
     7    24    33    1
     8    33    34    1
     9    34    35   ar
    10    35    36   ar
    11    36    37   ar
    12    37    38   ar
    13    38    39   ar
    14    39    40    1
    15    24     1    1
    16     1     2    1
    17     2     3    1
    18     3     4    1
    19     4     7    1
    20     7     8    1
    21     7     9    1
    22     9    10    1
    23    10    11    1
    24    11    12   am
    25    12    13    2
    26    12    15    1
    27    15    16   ar
    28    16    17    1
    29    16    18   ar
    30    18    19   ar
    31    19    20    1
    32    19    21   ar
    33    21    22   ar
    34    22    23    1
    35     4     5    1
    36     5     6    1
    37    28    29   ar
    38    29    30   ar
    39    30    25   ar
    40    39    34   ar
    41     6     1    1
    42    22    15   ar
    43    11    14    1
@<TRIPOS>MOLECULE
*****
 40 43 0 0 0
SMALL
GASTEIGER

@<TRIPOS>ATOM
      1 C         140.9150  138.9389  160.7818 C.3     1  UNL1        0.0759
      2 C         140.1739  139.1267  159.4913 C.3     1  UNL1        0.0371
      3 C         140.8342  138.7795  158.1899 C.3     1  UNL1        0.0737
      4 N         142.2356  138.2447  158.1791 N.3     1  UNL1       -0.2738
      5 C         142.9767  138.0570  159.4697 C.3     1  UNL1        0.0737
      6 C         142.3164  138.4041  160.7710 C.3     1  UNL1        0.0371
      7 C         142.8959  137.8976  156.8777 C.3     1  UNL1        0.0592
      8 C         143.0380  136.4615  156.4684 C.3     1  UNL1        0.0174
      9 C         143.4142  138.9865  155.9857 C.3     1  UNL1        0.0372
     10 C         144.0497  140.2067  156.5834 C.3     1  UNL1        0.0911
     11 N         143.3083  141.0128  157.6084 N.am    1  UNL1       -0.3008
     12 C         143.9924  142.1512  158.3056 C.2     1  UNL1        0.2467
     13 O         145.4179  142.4835  157.9778 O.2     1  UNL1       -0.2701
     14 H         142.3727  140.7947  157.8236 H       1  UNL1        0.1497
     15 C         143.2510  142.9572  159.3305 C.ar    1  UNL1        0.0630
     16 C         143.3611  142.6053  160.7846 C.ar    1  UNL1       -0.0140
     17 C         144.2126  141.4473  161.2135 C.3     1  UNL1        0.0313
     18 C         142.6197  143.4113  161.8095 C.ar    1  UNL1        0.0267
     19 C         141.7682  144.5693  161.3805 C.ar    1  UNL1        0.1376
     20 CL        141.0267  145.3753  162.4056 Cl      1  UNL1       -0.0614
     21 N         141.6581  144.9212  159.9266 N.ar    1  UNL1       -0.2381
     22 C         142.3995  144.1152  158.9015 C.ar    1  UNL1        0.0643
     23 C         142.2894  144.4671  157.4476 C.3     1  UNL1        0.0523
     24 N         140.2547  139.2860  162.0832 N.pl3   1  UNL1       -0.3051
     25 C         142.5980  139.0838  165.9195 C.ar    1  UNL1        0.1388
     26 C         142.5269  140.3700  165.1511 C.ar    1  UNL1        0.0382
     27 C         141.7458  140.4374  163.8723 C.ar    1  UNL1        0.0176
     28 C         141.0358  139.2186  163.3620 C.ar    1  UNL1        0.0482
     29 C         141.1070  137.9324  164.1304 C.ar    1  UNL1        0.0176
     30 C         141.8881  137.8650  165.4092 C.ar    1  UNL1        0.0382
     31 C         142.6975  139.2793  168.5083 C.3     1  UNL1        0.2525
     32 O         143.3792  139.0163  167.1983 O.3     1  UNL1       -0.4714
     33 C         138.8133  139.7005  162.1057 C.3     1  UNL1        0.1189
     34 C         138.4452  141.1168  162.4355 C.ar    1  UNL1        0.0128
     35 C         138.4227  142.1569  161.3549 C.ar    1  UNL1        0.0959
     36 N         138.0546  143.5731  161.6846 N.ar    1  UNL1       -0.2426
     37 C         137.7091  143.9493  163.0951 C.ar    1  UNL1        0.0985
     38 C         137.7317  142.9092  164.1757 C.ar    1  UNL1        0.0162
     39 C         138.0998  141.4929  163.8459 C.ar    1  UNL1       -0.0212
     40 C         138.1223  140.4529  164.9265 C.3     1  UNL1        0.0309
@<TRIPOS>BOND
     1    31    32    1
     2    32    25    1
     3    25    26   ar
     4    26    27   ar
     5    27    28   ar
     6    28    24    1
     7    24    33    1
     8    33    34    1
     9    34    35   ar
    10    35    36   ar
    11    36    37   ar
    12    37    38   ar
    13    38    39   ar
    14    39    40    1
    15    24     1    1
    16     1     2    1
    17     2     3    1
    18     3     4    1
    19     4     7    1
    20     7     8    1
    21     7     9    1
    22     9    10    1
    23    10    11    1
    24    11    12   am
    25    12    13    2
    26    12    15    1
    27    15    16   ar
    28    16    17    1
    29    16    18   ar
    30    18    19   ar
    31    19    20    1
    32    19    21   ar
    33    21    22   ar
    34    22    23    1
    35     4     5    1
    36     5     6    1
    37    28    29   ar
    38    29    30   ar
    39    30    25   ar
    40    39    34   ar
    41     6     1    1
    42    22    15   ar
    43    11    14    1
@<TRIPOS>MOLECULE
*****
 40 43 0 0 0
SMALL
GASTEIGER

@<TRIPOS>ATOM
      1 C         140.9293  140.4044  160.4520 C.3     1  UNL1        0.0759
      2 C         139.7412  140.9600  161.1798 C.3     1  UNL1        0.0371
      3 C         139.5539  142.4445  161.2865 C.3     1  UNL1        0.0737
      4 N         140.5547  143.3733  160.6655 N.3     1  UNL1       -0.2738
      5 C         141.7428  142.8177  159.9377 C.3     1  UNL1        0.0737
      6 C         141.9301  141.3333  159.8309 C.3     1  UNL1        0.0371
      7 C         140.3674  144.8578  160.7722 C.3     1  UNL1        0.0592
      8 C         140.2311  145.6877  159.5302 C.3     1  UNL1        0.0174
      9 C         140.3163  145.5122  162.1210 C.3     1  UNL1        0.0372
     10 C         141.4055  145.2568  163.1202 C.3     1  UNL1        0.0911
     11 N         141.1155  144.4624  164.3591 N.am    1  UNL1       -0.3008
     12 C         141.5962  143.0460  164.4714 C.2     1  UNL1        0.2467
     13 O         142.3668  142.4239  163.3449 O.2     1  UNL1       -0.2701
     14 H         140.6097  144.8707  165.0985 H       1  UNL1        0.1497
     15 C         141.3062  142.2517  165.7103 C.ar    1  UNL1        0.0630
     16 C         142.3553  142.1099  166.7731 C.ar    1  UNL1       -0.0140
     17 C         143.6943  142.7625  166.5969 C.3     1  UNL1        0.0313
     18 C         142.0653  141.3156  168.0120 C.ar    1  UNL1        0.0267
     19 C         140.7263  140.6629  168.1882 C.ar    1  UNL1        0.1376
     20 CL        140.4363  139.8686  169.4272 Cl      1  UNL1       -0.0614
     21 N         139.6772  140.8047  167.1255 N.ar    1  UNL1       -0.2381
     22 C         139.9671  141.5990  165.8866 C.ar    1  UNL1        0.0643
     23 C         138.9181  141.7408  164.8239 C.3     1  UNL1        0.0523
     24 N         141.1166  138.9200  160.3452 N.pl3   1  UNL1       -0.3051
     25 C         141.6710  137.0065  156.3102 C.ar    1  UNL1        0.1388
     26 C         142.8356  137.1321  157.2472 C.ar    1  UNL1        0.0382
     27 C         142.6508  137.7699  158.5922 C.ar    1  UNL1        0.0176
     28 C         141.3014  138.2822  159.0002 C.ar    1  UNL1        0.0482
     29 C         140.1368  138.1567  158.0633 C.ar    1  UNL1        0.0176
     30 C         140.3216  137.5188  156.7183 C.ar    1  UNL1        0.0382
     31 C         140.9285  135.2775  154.5189 C.3     1  UNL1        0.2525
     32 O         141.8558  136.3687  154.9652 O.3     1  UNL1       -0.4714
     33 C         141.1191  138.0735  161.5835 C.3     1  UNL1        0.1189
     34 C         142.0243  138.4212  162.7279 C.ar    1  UNL1        0.0128
     35 C         143.4581  138.7776  162.4686 C.ar    1  UNL1        0.0959
     36 N         144.3633  139.1253  163.6130 N.ar    1  UNL1       -0.2426
     37 C         143.8347  139.1166  165.0168 C.ar    1  UNL1        0.0985
     38 C         142.4010  138.7602  165.2761 C.ar    1  UNL1        0.0162
     39 C         141.4958  138.4125  164.1317 C.ar    1  UNL1       -0.0212
     40 C         140.0620  138.0560  164.3910 C.3     1  UNL1        0.0309
@<TRIPOS>BOND
     1    31    32    1
     2    32    25    1
     3    25    26   ar
     4    26    27   ar
     5    27    28   ar
     6    28    24    1
     7    24    33    1
     8    33    34    1
     9    34    35   ar
    10    35    36   ar
    11    36    37   ar
    12    37    38   ar
    13    38    39   ar
    14    39    40    1
    15    24     1    1
    16     1     2    1
    17     2     3    1
    18     3     4    1
    19     4     7    1
    20     7     8    1
    21     7     9    1
    22     9    10    1
    23    10    11    1
    24    11    12   am
    25    12    13    2
    26    12    15    1
    27    15    16   ar
    28    16    17    1
    29    16    18   ar
    30    18    19   ar
    31    19    20    1
    32    19    21   ar
    33    21    22   ar
    34    22    23    1
    35     4     5    1
    36     5     6    1
    37    28    29   ar
    38    29    30   ar
    39    30    25   ar
    40    39    34   ar
    41     6     1    1
    42    22    15   ar
    43    11    14    1
@<TRIPOS>MOLECULE
*****
 40 43 0 0 0
SMALL
GASTEIGER

@<TRIPOS>ATOM
      1 C         139.2035  140.4291  162.2301 C.3     1  UNL1        0.0759
      2 C         139.3847  139.0105  162.6825 C.3     1  UNL1        0.0371
      3 C         139.2211  138.6587  164.1315 C.3     1  UNL1        0.0737
      4 N         138.8763  139.7255  165.1280 N.3     1  UNL1       -0.2738
      5 C         138.6951  141.1441  164.6756 C.3     1  UNL1        0.0737
      6 C         138.8587  141.4960  163.2267 C.3     1  UNL1        0.0371
      7 C         138.7127  139.3737  166.5770 C.3     1  UNL1        0.0592
      8 C         137.6173  138.4421  167.0036 C.3     1  UNL1        0.0174
      9 C         139.6446  139.9536  167.5994 C.3     1  UNL1        0.0372
     10 C         141.1253  139.9351  167.3606 C.3     1  UNL1        0.0911
     11 N         141.6695  140.2530  165.9993 N.am    1  UNL1       -0.3008
     12 C         142.7328  141.2993  165.8422 C.2     1  UNL1        0.2467
     13 O         143.2520  142.0277  167.0463 O.2     1  UNL1       -0.2701
     14 H         141.3287  139.7749  165.2090 H       1  UNL1        0.1497
     15 C         143.2769  141.6171  164.4810 C.ar    1  UNL1        0.0630
     16 C         142.7632  142.8079  163.7272 C.ar    1  UNL1       -0.0140
     17 C         141.7053  143.6808  164.3346 C.3     1  UNL1        0.0313
     18 C         143.3073  143.1257  162.3660 C.ar    1  UNL1        0.0267
     19 C         144.3651  142.2528  161.7586 C.ar    1  UNL1        0.1376
     20 CL        144.9092  142.5706  160.3973 Cl      1  UNL1       -0.0614
     21 N         144.8788  141.0620  162.5123 N.ar    1  UNL1       -0.2381
     22 C         144.3347  140.7442  163.8736 C.ar    1  UNL1        0.0643
     23 C         144.8484  139.5534  164.6273 C.3     1  UNL1        0.0523
     24 N         139.3670  140.7810  160.7812 N.pl3   1  UNL1       -0.3051
     25 C         142.2878  138.5007  158.2279 C.ar    1  UNL1        0.1388
     26 C         140.8145  138.2647  158.0751 C.ar    1  UNL1        0.0382
     27 C         139.8409  139.0247  158.9262 C.ar    1  UNL1        0.0176
     28 C         140.3406  140.0209  159.9301 C.ar    1  UNL1        0.0482
     29 C         141.8140  140.2569  160.0829 C.ar    1  UNL1        0.0176
     30 C         142.7876  139.4969  159.2318 C.ar    1  UNL1        0.0382
     31 C         142.8584  136.4335  156.7612 C.3     1  UNL1        0.2525
     32 O         143.2615  137.7406  157.3768 O.3     1  UNL1       -0.4714
     33 C         138.5570  141.8929  160.1833 C.3     1  UNL1        0.1189
     34 C         139.2441  143.0945  159.6054 C.ar    1  UNL1        0.0128
     35 C         139.8729  144.1084  160.5145 C.ar    1  UNL1        0.0959
     36 N         140.5600  145.3100  159.9366 N.ar    1  UNL1       -0.2426
     37 C         140.6183  145.4978  158.4495 C.ar    1  UNL1        0.0985
     38 C         139.9895  144.4839  157.5404 C.ar    1  UNL1        0.0162
     39 C         139.3024  143.2822  158.1183 C.ar    1  UNL1       -0.0212
     40 C         138.6736  142.2683  157.2092 C.3     1  UNL1        0.0309
@<TRIPOS>BOND
     1    31    32    1
     2    32    25    1
     3    25    26   ar
     4    26    27   ar
     5    27    28   ar
     6    28    24    1
     7    24    33    1
     8    33    34    1
     9    34    35   ar
    10    35    36   ar
    11    36    37   ar
    12    37    38   ar
    13    38    39   ar
    14    39    40    1
    15    24     1    1
    16     1     2    1
    17     2     3    1
    18     3     4    1
    19     4     7    1
    20     7     8    1
    21     7     9    1
    22     9    10    1
    23    10    11    1
    24    11    12   am
    25    12    13    2
    26    12    15    1
    27    15    16   ar
    28    16    17    1
    29    16    18   ar
    30    18    19   ar
    31    19    20    1
    32    19    21   ar
    33    21    22   ar
    34    22    23    1
    35     4     5    1
    36     5     6    1
    37    28    29   ar
    38    29    30   ar
    39    30    25   ar
    40    39    34   ar
    41     6     1    1
    42    22    15   ar
    43    11    14    1
@<TRIPOS>MOLECULE
*****
 40 43 0 0 0
SMALL
GASTEIGER

@<TRIPOS>ATOM
      1 C         142.6608  142.1395  163.7722 C.3     1  UNL1        0.0759
      2 C         143.4813  142.9319  162.7982 C.3     1  UNL1        0.0371
      3 C         142.8325  143.9942  161.9610 C.3     1  UNL1        0.0737
      4 N         141.3634  144.2640  162.0980 N.3     1  UNL1       -0.2738
      5 C         140.5429  143.4715  163.0721 C.3     1  UNL1        0.0737
      6 C         141.1916  142.4093  163.9092 C.3     1  UNL1        0.0371
      7 C         140.7146  145.3263  161.2609 C.3     1  UNL1        0.0592
      8 C         139.9139  146.4125  161.9159 C.3     1  UNL1        0.0174
      9 C         140.8666  145.3024  159.7688 C.3     1  UNL1        0.0372
     10 C         140.6123  144.0342  159.0093 C.3     1  UNL1        0.0911
     11 N         140.3651  142.7532  159.7498 N.am    1  UNL1       -0.3008
     12 C         138.9970  142.1383  159.7487 C.2     1  UNL1        0.2467
     13 O         137.8760  142.8042  159.0072 O.2     1  UNL1       -0.2701
     14 H         141.1009  142.3161  160.2365 H       1  UNL1        0.1497
     15 C         138.7499  140.8574  160.4891 C.ar    1  UNL1        0.0630
     16 C         138.1079  140.8864  161.8445 C.ar    1  UNL1       -0.0140
     17 C         137.7129  142.1963  162.4594 C.3     1  UNL1        0.0313
     18 C         137.8608  139.6055  162.5849 C.ar    1  UNL1        0.0267
     19 C         138.2557  138.2956  161.9700 C.ar    1  UNL1        0.1376
     20 CL        138.0086  137.0147  162.7105 Cl      1  UNL1       -0.0614
     21 N         138.8978  138.2665  160.6147 N.ar    1  UNL1       -0.2381
     22 C         139.1449  139.5474  159.8742 C.ar    1  UNL1        0.0643
     23 C         139.7869  139.5184  158.5189 C.3     1  UNL1        0.0523
     24 N         143.3095  141.0772  164.6093 N.pl3   1  UNL1       -0.3051
     25 C         142.7097  141.0483  169.0691 C.ar    1  UNL1        0.1388
     26 C         143.0705  142.3249  168.3691 C.ar    1  UNL1        0.0382
     27 C         143.2704  142.3345  166.8826 C.ar    1  UNL1        0.0176
     28 C         143.1096  141.0676  166.0959 C.ar    1  UNL1        0.0482
     29 C         142.7488  139.7909  166.7959 C.ar    1  UNL1        0.0176
     30 C         142.5488  139.7813  168.2825 C.ar    1  UNL1        0.0382
     31 C         141.4968  141.9504  171.1822 C.3     1  UNL1        0.2525
     32 O         142.5098  141.0386  170.5557 O.3     1  UNL1       -0.4714
     33 C         144.1581  140.0246  163.9599 C.3     1  UNL1        0.1189
     34 C         143.7142  139.3909  162.6747 C.ar    1  UNL1        0.0128
     35 C         144.4021  139.7418  161.3888 C.ar    1  UNL1        0.0959
     36 N         143.9583  139.1082  160.1036 N.ar    1  UNL1       -0.2426
     37 C         142.8266  138.1237  160.1045 C.ar    1  UNL1        0.0985
     38 C         142.1387  137.7728  161.3904 C.ar    1  UNL1        0.0162
     39 C         142.5825  138.4065  162.6756 C.ar    1  UNL1       -0.0212
     40 C         141.8946  138.0556  163.9615 C.3     1  UNL1        0.0309
@<TRIPOS>BOND
     1    31    32    1
     2    32    25    1
     3    25    26   ar
     4    26    27   ar
     5    27    28   ar
     6    28    24    1
     7    24    33    1
     8    33    34    1
     9    34    35   ar
    10    35    36   ar
    11    36    37   ar
    12    37    38   ar
    13    38    39   ar
    14    39    40    1
    15    24     1    1
    16     1     2    1
    17     2     3    1
    18     3     4    1
    19     4     7    1
    20     7     8    1
    21     7     9    1
    22     9    10    1
    23    10    11    1
    24    11    12   am
    25    12    13    2
    26    12    15    1
    27    15    16   ar
    28    16    17    1
    29    16    18   ar
    30    18    19   ar
    31    19    20    1
    32    19    21   ar
    33    21    22   ar
    34    22    23    1
    35     4     5    1
    36     5     6    1
    37    28    29   ar
    38    29    30   ar
    39    30    25   ar
    40    39    34   ar
    41     6     1    1
    42    22    15   ar
    43    11    14    1
