@<TRIPOS>MOLECULE
*****
 30 33 0 0 0
SMALL
GASTEIGER

@<TRIPOS>ATOM
      1 C         141.6271  138.5278  159.9448 C.3     1  UNL1        0.0406
      2 C         140.1289  138.5989  159.9251 C.3     1  UNL1        0.0231
      3 C         139.6222  138.0610  161.2304 C.3     1  UNL1        0.0728
      4 N         140.8071  137.6574  162.0569 N.3     1  UNL1       -0.2686
      5 C         142.0462  137.9460  161.2622 C.3     1  UNL1        0.0768
      6 C         142.2517  136.8689  157.2048 C.3     1  UNL1        0.0517
      7 C         142.8320  138.1998  157.5814 C.2     1  UNL1        0.0551
      8 N         143.8014  139.0019  156.7647 N.2     1  UNL1       -0.2503
      9 C         144.1134  140.2602  157.5194 C.2     1  UNL1        0.0770
     10 C         145.0042  141.4250  157.2039 C.2     1  UNL1        0.0184
     11 C         145.1185  142.5654  158.1716 C.2     1  UNL1       -0.0027
     12 C         144.3420  142.5409  159.4547 C.2     1  UNL1       -0.0213
     13 C         143.4512  141.3761  159.7702 C.3     1  UNL1        0.0535
     14 C         143.3368  140.2357  158.8025 C.2     1  UNL1       -0.0030
     15 C         142.5449  138.9624  158.8408 C.2     1  UNL1       -0.0097
     16 C         140.7611  137.0688  163.4357 C.3     1  UNL1        0.0992
     17 C         140.4767  137.9478  164.6174 C.ar    1  UNL1       -0.0061
     18 C         139.0611  138.1813  165.0550 C.ar    1  UNL1       -0.0029
     19 C         138.7768  139.0603  166.2367 C.ar    1  UNL1       -0.0003
     20 C         139.9079  139.7058  166.9807 C.ar    1  UNL1        0.0001
     21 C         141.3236  139.4723  166.5431 C.ar    1  UNL1       -0.0003
     22 C         141.6080  138.5933  165.3614 C.ar    1  UNL1       -0.0029
     23 C         139.6236  140.5849  168.1625 C.2     1  UNL1        0.0047
     24 C         140.5289  141.7398  168.4733 C.2     1  UNL1        0.0598
     25 C         140.2445  142.6188  169.6550 C.2     1  UNL1        0.2679
     26 O         140.0966  142.0154  171.0203 O.2     1  UNL1       -0.2681
     27 N         140.1081  144.1013  169.4714 N.am    1  UNL1       -0.1934
     28 O         139.8237  144.9802  170.6533 O.3     1  UNL1       -0.2949
     29 H         140.2052  144.4974  168.5754 H       1  UNL1        0.1825
     30 H         139.7584  144.4354  171.4531 H       1  UNL1        0.2414
@<TRIPOS>BOND
     1     6     7    1
     2     7     8    2
     3     8     9    1
     4     9    10    2
     5    10    11    1
     6    11    12    2
     7    12    13    1
     8    13    14    1
     9    14    15    2
    10    15     1    1
    11     1     2    1
    12     2     3    1
    13     3     4    1
    14     4    16    1
    15    16    17    1
    16    17    18   ar
    17    18    19   ar
    18    19    20   ar
    19    20    23    1
    20    23    24    2
    21    24    25    1
    22    25    26    2
    23    25    27   am
    24    27    28    1
    25    20    21   ar
    26    21    22   ar
    27     4     5    1
    28    15     7    1
    29     5     1    1
    30    14     9    1
    31    22    17   ar
    32    27    29    1
    33    28    30    1
@<TRIPOS>MOLECULE
*****
 30 33 0 0 0
SMALL
GASTEIGER

@<TRIPOS>ATOM
      1 C         138.9554  140.4817  161.0544 C.3     1  UNL1        0.0406
      2 C         137.8342  139.5543  160.6898 C.3     1  UNL1        0.0231
      3 C         137.7225  138.5164  161.7670 C.3     1  UNL1        0.0728
      4 N         138.7745  138.8023  162.7973 N.3     1  UNL1       -0.2686
      5 C         139.5364  140.0170  162.3568 C.3     1  UNL1        0.0768
      6 C         139.8871  140.4430  157.9271 C.3     1  UNL1        0.0517
      7 C         139.8430  141.6482  158.8191 C.2     1  UNL1        0.0551
      8 N         140.2194  143.0472  158.4303 N.2     1  UNL1       -0.2503
      9 C         140.0237  143.9296  159.6274 C.2     1  UNL1        0.0770
     10 C         140.2341  145.4001  159.8356 C.2     1  UNL1        0.0184
     11 C         139.9472  146.0169  161.1724 C.2     1  UNL1       -0.0027
     12 C         139.4499  145.1633  162.3011 C.2     1  UNL1       -0.0213
     13 C         139.2395  143.6928  162.0930 C.3     1  UNL1        0.0535
     14 C         139.5264  143.0759  160.7561 C.2     1  UNL1       -0.0030
     15 C         139.4147  141.6660  160.2566 C.2     1  UNL1       -0.0097
     16 C         139.0212  138.0124  164.0482 C.3     1  UNL1        0.0992
     17 C         139.6862  138.6610  165.2260 C.ar    1  UNL1       -0.0061
     18 C         138.8575  139.3477  166.2708 C.ar    1  UNL1       -0.0029
     19 C         139.5224  139.9963  167.4486 C.ar    1  UNL1       -0.0003
     20 C         141.0160  139.9583  167.5815 C.ar    1  UNL1        0.0001
     21 C         141.8447  139.2716  166.5366 C.ar    1  UNL1       -0.0003
     22 C         141.1798  138.6230  165.3589 C.ar    1  UNL1       -0.0029
     23 C         141.6809  140.6070  168.7593 C.2     1  UNL1        0.0047
     24 C         141.1103  141.8651  169.3437 C.2     1  UNL1        0.0598
     25 C         141.7752  142.5138  170.5215 C.2     1  UNL1        0.2679
     26 O         141.3099  142.1995  171.9124 O.2     1  UNL1       -0.2681
     27 N         142.9054  143.4767  170.3083 N.am    1  UNL1       -0.1934
     28 O         143.5703  144.1254  171.4862 O.3     1  UNL1       -0.2949
     29 H         143.2108  143.6830  169.3954 H       1  UNL1        0.1825
     30 H         143.1519  143.8156  172.3047 H       1  UNL1        0.2414
@<TRIPOS>BOND
     1     6     7    1
     2     7     8    2
     3     8     9    1
     4     9    10    2
     5    10    11    1
     6    11    12    2
     7    12    13    1
     8    13    14    1
     9    14    15    2
    10    15     1    1
    11     1     2    1
    12     2     3    1
    13     3     4    1
    14     4    16    1
    15    16    17    1
    16    17    18   ar
    17    18    19   ar
    18    19    20   ar
    19    20    23    1
    20    23    24    2
    21    24    25    1
    22    25    26    2
    23    25    27   am
    24    27    28    1
    25    20    21   ar
    26    21    22   ar
    27     4     5    1
    28    15     7    1
    29     5     1    1
    30    14     9    1
    31    22    17   ar
    32    27    29    1
    33    28    30    1
@<TRIPOS>MOLECULE
*****
 30 33 0 0 0
SMALL
GASTEIGER

@<TRIPOS>ATOM
      1 C         141.3353  138.4117  160.1182 C.3     1  UNL1        0.0406
      2 C         139.8529  138.3757  160.3448 C.3     1  UNL1        0.0231
      3 C         139.6097  137.8981  161.7458 C.3     1  UNL1        0.0728
      4 N         140.9418  137.6389  162.3850 N.3     1  UNL1       -0.2686
      5 C         142.0081  137.9564  161.3790 C.3     1  UNL1        0.0768
      6 C         141.8123  141.4812  159.1178 C.3     1  UNL1        0.0517
      7 C         142.2430  140.2406  158.3930 C.2     1  UNL1        0.0551
      8 N         142.9686  140.1930  157.0810 N.2     1  UNL1       -0.2503
      9 C         143.1978  138.7528  156.7300 C.2     1  UNL1        0.0770
     10 C         143.8628  138.0997  155.5547 C.2     1  UNL1        0.0184
     11 C         143.9438  136.6041  155.4745 C.2     1  UNL1       -0.0027
     12 C         143.3598  135.7615  156.5695 C.2     1  UNL1       -0.0213
     13 C         142.6949  136.4146  157.7447 C.3     1  UNL1        0.0535
     14 C         142.6139  137.9102  157.8250 C.2     1  UNL1       -0.0030
     15 C         142.0238  138.8297  158.8527 C.2     1  UNL1       -0.0097
     16 C         141.1677  137.1485  163.7844 C.3     1  UNL1        0.0992
     17 C         141.2215  138.1249  164.9218 C.ar    1  UNL1       -0.0061
     18 C         142.5316  138.4338  165.5837 C.ar    1  UNL1       -0.0029
     19 C         142.5854  139.4101  166.7212 C.ar    1  UNL1       -0.0003
     20 C         141.3292  140.0776  167.1967 C.ar    1  UNL1        0.0001
     21 C         140.0190  139.7687  166.5348 C.ar    1  UNL1       -0.0003
     22 C         139.9652  138.7923  165.3974 C.ar    1  UNL1       -0.0029
     23 C         141.3830  141.0540  168.3342 C.2     1  UNL1        0.0047
     24 C         142.5879  141.1004  169.2264 C.2     1  UNL1        0.0598
     25 C         142.6418  142.0767  170.3639 C.2     1  UNL1        0.2679
     26 O         141.7064  141.9258  171.5268 O.2     1  UNL1       -0.2681
     27 N         143.6310  143.2041  170.3384 N.am    1  UNL1       -0.1934
     28 O         143.6847  144.1804  171.4760 O.3     1  UNL1       -0.2949
     29 H         144.2449  143.3032  169.5752 H       1  UNL1        0.1825
     30 H         143.0189  143.9409  172.1394 H       1  UNL1        0.2414
@<TRIPOS>BOND
     1     6     7    1
     2     7     8    2
     3     8     9    1
     4     9    10    2
     5    10    11    1
     6    11    12    2
     7    12    13    1
     8    13    14    1
     9    14    15    2
    10    15     1    1
    11     1     2    1
    12     2     3    1
    13     3     4    1
    14     4    16    1
    15    16    17    1
    16    17    18   ar
    17    18    19   ar
    18    19    20   ar
    19    20    23    1
    20    23    24    2
    21    24    25    1
    22    25    26    2
    23    25    27   am
    24    27    28    1
    25    20    21   ar
    26    21    22   ar
    27     4     5    1
    28    15     7    1
    29     5     1    1
    30    14     9    1
    31    22    17   ar
    32    27    29    1
    33    28    30    1
@<TRIPOS>MOLECULE
*****
 30 33 0 0 0
SMALL
GASTEIGER

@<TRIPOS>ATOM
      1 C         140.9299  143.1368  163.7895 C.3     1  UNL1        0.0406
      2 C         140.3522  144.1935  164.6837 C.3     1  UNL1        0.0231
      3 C         139.7212  143.5104  165.8607 C.3     1  UNL1        0.0728
      4 N         139.9090  142.0315  165.6940 N.3     1  UNL1       -0.2686
      5 C         140.6560  141.8007  164.4139 C.3     1  UNL1        0.0768
      6 C         144.1206  143.7386  163.4623 C.3     1  UNL1        0.0517
      7 C         143.1210  143.6511  162.3474 C.2     1  UNL1        0.0551
      8 N         143.4124  143.8249  160.8863 N.2     1  UNL1       -0.2503
      9 C         142.1259  143.6557  160.1336 C.2     1  UNL1        0.0770
     10 C         141.8035  143.7191  158.6701 C.2     1  UNL1        0.0184
     11 C         140.3945  143.5042  158.2026 C.2     1  UNL1       -0.0027
     12 C         139.3080  143.2258  159.1986 C.2     1  UNL1       -0.0213
     13 C         139.6305  143.1624  160.6621 C.3     1  UNL1        0.0535
     14 C         141.0394  143.3773  161.1296 C.2     1  UNL1       -0.0030
     15 C         141.6544  143.3745  162.4978 C.2     1  UNL1       -0.0097
     16 C         139.4333  140.9701  166.6410 C.3     1  UNL1        0.0992
     17 C         140.3881  140.3585  167.6230 C.ar    1  UNL1       -0.0061
     18 C         141.6753  139.7569  167.1424 C.ar    1  UNL1       -0.0029
     19 C         142.6301  139.1454  168.1245 C.ar    1  UNL1       -0.0003
     20 C         142.2976  139.1354  169.5871 C.ar    1  UNL1        0.0001
     21 C         141.0103  139.7371  170.0677 C.ar    1  UNL1       -0.0003
     22 C         140.0555  140.3486  169.0857 C.ar    1  UNL1       -0.0029
     23 C         143.2524  138.5238  170.5692 C.2     1  UNL1        0.0047
     24 C         143.5749  137.0610  170.4903 C.2     1  UNL1        0.0598
     25 C         144.5297  136.4495  171.4723 C.2     1  UNL1        0.2679
     26 O         145.7970  137.1666  171.8323 O.2     1  UNL1       -0.2681
     27 N         144.2171  135.1208  172.0943 N.am    1  UNL1       -0.1934
     28 O         145.1720  134.5093  173.0764 O.3     1  UNL1       -0.2949
     29 H         143.3853  134.6501  171.8581 H       1  UNL1        0.1825
     30 H         145.9339  135.0976  173.1958 H       1  UNL1        0.2414
@<TRIPOS>BOND
     1     6     7    1
     2     7     8    2
     3     8     9    1
     4     9    10    2
     5    10    11    1
     6    11    12    2
     7    12    13    1
     8    13    14    1
     9    14    15    2
    10    15     1    1
    11     1     2    1
    12     2     3    1
    13     3     4    1
    14     4    16    1
    15    16    17    1
    16    17    18   ar
    17    18    19   ar
    18    19    20   ar
    19    20    23    1
    20    23    24    2
    21    24    25    1
    22    25    26    2
    23    25    27   am
    24    27    28    1
    25    20    21   ar
    26    21    22   ar
    27     4     5    1
    28    15     7    1
    29     5     1    1
    30    14     9    1
    31    22    17   ar
    32    27    29    1
    33    28    30    1
@<TRIPOS>MOLECULE
*****
 30 33 0 0 0
SMALL
GASTEIGER

@<TRIPOS>ATOM
      1 C         139.4959  143.4737  162.9829 C.3     1  UNL1        0.0406
      2 C         138.5211  144.2422  163.8250 C.3     1  UNL1        0.0231
      3 C         138.9457  144.1152  165.2580 C.3     1  UNL1        0.0728
      4 N         140.1829  143.2682  165.3016 N.3     1  UNL1       -0.2686
      5 C         140.5229  142.8718  163.8955 C.3     1  UNL1        0.0768
      6 C         140.6932  145.6015  160.8176 C.3     1  UNL1        0.0517
      7 C         140.0018  144.3101  160.4950 C.2     1  UNL1        0.0551
      8 N         139.7393  143.7699  159.1205 N.2     1  UNL1       -0.2503
      9 C         139.0267  142.4580  159.2662 C.2     1  UNL1        0.0770
     10 C         138.5169  141.4749  158.2545 C.2     1  UNL1        0.0184
     11 C         137.8292  140.2212  158.7075 C.2     1  UNL1       -0.0027
     12 C         137.6513  139.9506  160.1721 C.2     1  UNL1       -0.0213
     13 C         138.1611  140.9337  161.1838 C.3     1  UNL1        0.0535
     14 C         138.8488  142.1874  160.7308 C.2     1  UNL1       -0.0030
     15 C         139.4514  143.3320  161.4902 C.2     1  UNL1       -0.0097
     16 C         140.9460  142.8850  166.5347 C.3     1  UNL1        0.0992
     17 C         140.3073  142.0067  167.5694 C.ar    1  UNL1       -0.0061
     18 C         140.2814  142.4370  169.0061 C.ar    1  UNL1       -0.0029
     19 C         139.6427  141.5587  170.0407 C.ar    1  UNL1       -0.0003
     20 C         139.0298  140.2501  169.6387 C.ar    1  UNL1        0.0001
     21 C         139.0556  139.8196  168.2020 C.ar    1  UNL1       -0.0003
     22 C         139.6944  140.6980  167.1673 C.ar    1  UNL1       -0.0029
     23 C         138.3910  139.3717  170.6735 C.2     1  UNL1        0.0047
     24 C         136.9111  139.1292  170.6413 C.2     1  UNL1        0.0598
     25 C         136.2723  138.2509  171.6759 C.2     1  UNL1        0.2679
     26 O         135.3333  138.8420  172.6853 O.2     1  UNL1       -0.2681
     27 N         136.5726  136.7815  171.7012 N.am    1  UNL1       -0.1934
     28 O         135.9338  135.9032  172.7360 O.3     1  UNL1       -0.2949
     29 H         137.1890  136.3935  171.0388 H       1  UNL1        0.1825
     30 H         135.3599  136.4393  173.3054 H       1  UNL1        0.2414
@<TRIPOS>BOND
     1     6     7    1
     2     7     8    2
     3     8     9    1
     4     9    10    2
     5    10    11    1
     6    11    12    2
     7    12    13    1
     8    13    14    1
     9    14    15    2
    10    15     1    1
    11     1     2    1
    12     2     3    1
    13     3     4    1
    14     4    16    1
    15    16    17    1
    16    17    18   ar
    17    18    19   ar
    18    19    20   ar
    19    20    23    1
    20    23    24    2
    21    24    25    1
    22    25    26    2
    23    25    27   am
    24    27    28    1
    25    20    21   ar
    26    21    22   ar
    27     4     5    1
    28    15     7    1
    29     5     1    1
    30    14     9    1
    31    22    17   ar
    32    27    29    1
    33    28    30    1
@<TRIPOS>MOLECULE
*****
 30 33 0 0 0
SMALL
GASTEIGER

@<TRIPOS>ATOM
      1 C         139.6393  142.9748  159.3559 C.3     1  UNL1        0.0406
      2 C         140.9695  143.4065  158.8135 C.3     1  UNL1        0.0231
      3 C         141.6344  144.2669  159.8467 C.3     1  UNL1        0.0728
      4 N         140.7151  144.3671  161.0279 N.3     1  UNL1       -0.2686
      5 C         139.4821  143.5685  160.7244 C.3     1  UNL1        0.0768
      6 C         138.7320  139.9766  160.2709 C.3     1  UNL1        0.0517
      7 C         138.2246  140.7245  159.0738 C.2     1  UNL1        0.0551
      8 N         137.2110  140.2257  158.0870 N.2     1  UNL1       -0.2503
      9 C         137.0016  141.2954  157.0566 C.2     1  UNL1        0.0770
     10 C         136.1200  141.3631  155.8449 C.2     1  UNL1        0.0184
     11 C         136.1227  142.5908  154.9832 C.2     1  UNL1       -0.0027
     12 C         137.0069  143.7509  155.3331 C.2     1  UNL1       -0.0213
     13 C         137.8884  143.6832  156.5448 C.3     1  UNL1        0.0535
     14 C         137.8858  142.4555  157.4065 C.2     1  UNL1       -0.0030
     15 C         138.6416  142.1026  158.6532 C.2     1  UNL1       -0.0097
     16 C         140.9819  145.1315  162.2905 C.3     1  UNL1        0.0992
     17 C         140.7846  144.4713  163.6228 C.ar    1  UNL1       -0.0061
     18 C         139.5441  144.7466  164.4199 C.ar    1  UNL1       -0.0029
     19 C         139.3468  144.0864  165.7522 C.ar    1  UNL1       -0.0003
     20 C         140.3899  143.1509  166.2875 C.ar    1  UNL1        0.0001
     21 C         141.6305  142.8756  165.4905 C.ar    1  UNL1       -0.0003
     22 C         141.8278  143.5357  164.1581 C.ar    1  UNL1       -0.0029
     23 C         140.1926  142.4907  167.6200 C.2     1  UNL1        0.0047
     24 C         140.3606  143.2837  168.8821 C.2     1  UNL1        0.0598
     25 C         140.1633  142.6235  170.2145 C.2     1  UNL1        0.2679
     26 O         139.2180  143.2204  171.2146 O.2     1  UNL1       -0.2681
     27 N         140.9112  141.3664  170.5468 N.am    1  UNL1       -0.1934
     28 O         140.7138  140.7063  171.8792 O.3     1  UNL1       -0.2949
     29 H         141.5316  140.9746  169.8904 H       1  UNL1        0.1825
     30 H         140.0752  141.2166  172.4015 H       1  UNL1        0.2414
@<TRIPOS>BOND
     1     6     7    1
     2     7     8    2
     3     8     9    1
     4     9    10    2
     5    10    11    1
     6    11    12    2
     7    12    13    1
     8    13    14    1
     9    14    15    2
    10    15     1    1
    11     1     2    1
    12     2     3    1
    13     3     4    1
    14     4    16    1
    15    16    17    1
    16    17    18   ar
    17    18    19   ar
    18    19    20   ar
    19    20    23    1
    20    23    24    2
    21    24    25    1
    22    25    26    2
    23    25    27   am
    24    27    28    1
    25    20    21   ar
    26    21    22   ar
    27     4     5    1
    28    15     7    1
    29     5     1    1
    30    14     9    1
    31    22    17   ar
    32    27    29    1
    33    28    30    1
@<TRIPOS>MOLECULE
*****
 30 33 0 0 0
SMALL
GASTEIGER

@<TRIPOS>ATOM
      1 C         140.2986  139.0880  158.9638 C.3     1  UNL1        0.0406
      2 C         139.1910  140.0378  158.6154 C.3     1  UNL1        0.0231
      3 C         138.1478  139.9472  159.6894 C.3     1  UNL1        0.0728
      4 N         138.6105  138.9414  160.7015 N.3     1  UNL1       -0.2686
      5 C         139.9398  138.4105  160.2529 C.3     1  UNL1        0.0768
      6 C         143.1482  140.6271  159.3645 C.3     1  UNL1        0.0517
      7 C         142.8557  139.5640  158.3475 C.2     1  UNL1        0.0551
      8 N         143.8216  139.0216  157.3362 N.2     1  UNL1       -0.2503
      9 C         143.1088  137.9789  156.5270 C.2     1  UNL1        0.0770
     10 C         143.5587  137.1092  155.3907 C.2     1  UNL1        0.0184
     11 C         142.6022  136.1375  154.7657 C.2     1  UNL1       -0.0027
     12 C         141.1957  136.0355  155.2769 C.2     1  UNL1       -0.0213
     13 C         140.7457  136.9052  156.4131 C.3     1  UNL1        0.0535
     14 C         141.7023  137.8769  157.0382 C.2     1  UNL1       -0.0030
     15 C         141.5459  138.8565  158.1633 C.2     1  UNL1       -0.0097
     16 C         137.8735  138.5375  161.9438 C.3     1  UNL1        0.0992
     17 C         138.3958  138.9416  163.2906 C.ar    1  UNL1       -0.0061
     18 C         138.0774  140.2997  163.8420 C.ar    1  UNL1       -0.0029
     19 C         138.5997  140.7038  165.1888 C.ar    1  UNL1       -0.0003
     20 C         139.4405  139.7497  165.9842 C.ar    1  UNL1        0.0001
     21 C         139.7590  138.3915  165.4328 C.ar    1  UNL1       -0.0003
     22 C         139.2367  137.9875  164.0860 C.ar    1  UNL1       -0.0029
     23 C         139.9629  140.1538  167.3310 C.2     1  UNL1        0.0047
     24 C         139.0733  140.0720  168.5360 C.2     1  UNL1        0.0598
     25 C         139.5956  140.4760  169.8828 C.2     1  UNL1        0.2679
     26 O         140.1732  139.4428  170.8040 O.2     1  UNL1       -0.2681
     27 N         139.5404  141.9134  170.3083 N.am    1  UNL1       -0.1934
     28 O         140.0628  142.3173  171.6552 O.3     1  UNL1       -0.2949
     29 H         139.1613  142.5916  169.7037 H       1  UNL1        0.1825
     30 H         140.3981  141.5347  172.1199 H       1  UNL1        0.2414
@<TRIPOS>BOND
     1     6     7    1
     2     7     8    2
     3     8     9    1
     4     9    10    2
     5    10    11    1
     6    11    12    2
     7    12    13    1
     8    13    14    1
     9    14    15    2
    10    15     1    1
    11     1     2    1
    12     2     3    1
    13     3     4    1
    14     4    16    1
    15    16    17    1
    16    17    18   ar
    17    18    19   ar
    18    19    20   ar
    19    20    23    1
    20    23    24    2
    21    24    25    1
    22    25    26    2
    23    25    27   am
    24    27    28    1
    25    20    21   ar
    26    21    22   ar
    27     4     5    1
    28    15     7    1
    29     5     1    1
    30    14     9    1
    31    22    17   ar
    32    27    29    1
    33    28    30    1
@<TRIPOS>MOLECULE
*****
 30 33 0 0 0
SMALL
GASTEIGER

@<TRIPOS>ATOM
      1 C         143.4436  142.5813  159.6159 C.3     1  UNL1        0.0406
      2 C         142.2751  143.5205  159.5642 C.3     1  UNL1        0.0231
      3 C         142.2155  144.2584  160.8688 C.3     1  UNL1        0.0728
      4 N         143.3471  143.7753  161.7268 N.3     1  UNL1       -0.2686
      5 C         144.1060  142.7388  160.9524 C.3     1  UNL1        0.0768
      6 C         141.9303  139.8262  158.7391 C.3     1  UNL1        0.0517
      7 C         143.1783  140.3821  158.1199 C.2     1  UNL1        0.0551
      8 N         143.9500  139.7692  156.9890 N.2     1  UNL1       -0.2503
      9 C         145.1224  140.6568  156.6930 C.2     1  UNL1        0.0770
     10 C         146.2267  140.5575  155.6828 C.2     1  UNL1        0.0184
     11 C         147.2840  141.6197  155.6206 C.2     1  UNL1       -0.0027
     12 C         147.2370  142.7811  156.5687 C.2     1  UNL1       -0.0213
     13 C         146.1327  142.8804  157.5789 C.3     1  UNL1        0.0535
     14 C         145.0754  141.8183  157.6411 C.2     1  UNL1       -0.0030
     15 C         143.8739  141.6485  158.5229 C.2     1  UNL1       -0.0097
     16 C         143.6640  144.2459  163.1153 C.3     1  UNL1        0.0992
     17 C         143.0522  143.5567  164.2988 C.ar    1  UNL1       -0.0061
     18 C         141.5603  143.4781  164.4324 C.ar    1  UNL1       -0.0029
     19 C         140.9485  142.7889  165.6159 C.ar    1  UNL1       -0.0003
     20 C         141.8287  142.1783  166.6658 C.ar    1  UNL1        0.0001
     21 C         143.3207  142.2569  166.5322 C.ar    1  UNL1       -0.0003
     22 C         143.9325  142.9461  165.3487 C.ar    1  UNL1       -0.0029
     23 C         141.2169  141.4891  167.8493 C.2     1  UNL1        0.0047
     24 C         141.3294  142.1008  169.2143 C.2     1  UNL1        0.0598
     25 C         140.7177  141.4116  170.3978 C.2     1  UNL1        0.2679
     26 O         140.5431  142.1532  171.6899 O.2     1  UNL1       -0.2681
     27 N         140.2805  139.9808  170.2892 N.am    1  UNL1       -0.1934
     28 O         139.6687  139.2917  171.4729 O.3     1  UNL1       -0.2949
     29 H         140.3951  139.4941  169.4412 H       1  UNL1        0.1825
     30 H         139.6293  139.9078  172.2210 H       1  UNL1        0.2414
@<TRIPOS>BOND
     1     6     7    1
     2     7     8    2
     3     8     9    1
     4     9    10    2
     5    10    11    1
     6    11    12    2
     7    12    13    1
     8    13    14    1
     9    14    15    2
    10    15     1    1
    11     1     2    1
    12     2     3    1
    13     3     4    1
    14     4    16    1
    15    16    17    1
    16    17    18   ar
    17    18    19   ar
    18    19    20   ar
    19    20    23    1
    20    23    24    2
    21    24    25    1
    22    25    26    2
    23    25    27   am
    24    27    28    1
    25    20    21   ar
    26    21    22   ar
    27     4     5    1
    28    15     7    1
    29     5     1    1
    30    14     9    1
    31    22    17   ar
    32    27    29    1
    33    28    30    1
@<TRIPOS>MOLECULE
*****
 30 33 0 0 0
SMALL
GASTEIGER

@<TRIPOS>ATOM
      1 C         138.4038  141.2552  159.8285 C.3     1  UNL1        0.0406
      2 C         138.8846  142.6388  160.1513 C.3     1  UNL1        0.0231
      3 C         138.5341  142.9297  161.5805 C.3     1  UNL1        0.0728
      4 N         137.8366  141.7258  162.1410 N.3     1  UNL1       -0.2686
      5 C         137.7561  140.6909  161.0581 C.3     1  UNL1        0.0768
      6 C         140.0212  138.4720  159.2925 C.3     1  UNL1        0.0517
      7 C         139.2892  139.2789  158.2615 C.2     1  UNL1        0.0551
      8 N         139.1720  138.9483  156.8031 N.2     1  UNL1       -0.2503
      9 C         138.3562  140.0232  156.1481 C.2     1  UNL1        0.0770
     10 C         137.9158  140.2246  154.7284 C.2     1  UNL1        0.0184
     11 C         137.0883  141.4209  154.3624 C.2     1  UNL1       -0.0027
     12 C         136.7012  142.4159  155.4160 C.2     1  UNL1       -0.0213
     13 C         137.1416  142.2146  156.8357 C.3     1  UNL1        0.0535
     14 C         137.9691  141.0182  157.2017 C.2     1  UNL1       -0.0030
     15 C         138.5457  140.5582  158.5078 C.2     1  UNL1       -0.0097
     16 C         137.3118  141.5820  163.5387 C.3     1  UNL1        0.0992
     17 C         138.2507  141.2583  164.6628 C.ar    1  UNL1       -0.0061
     18 C         139.2306  142.2880  165.1417 C.ar    1  UNL1       -0.0029
     19 C         140.1695  141.9643  166.2658 C.ar    1  UNL1       -0.0003
     20 C         140.1286  140.6108  166.9109 C.ar    1  UNL1        0.0001
     21 C         139.1487  139.5810  166.4321 C.ar    1  UNL1       -0.0003
     22 C         138.2097  139.9047  165.3080 C.ar    1  UNL1       -0.0029
     23 C         141.0676  140.2871  168.0351 C.2     1  UNL1        0.0047
     24 C         140.8805  140.9301  169.3773 C.2     1  UNL1        0.0598
     25 C         141.8194  140.6063  170.5014 C.2     1  UNL1        0.2679
     26 O         141.5505  141.1353  171.8791 O.2     1  UNL1       -0.2681
     27 N         143.0271  139.7536  170.2479 N.am    1  UNL1       -0.1934
     28 O         143.9660  139.4300  171.3721 O.3     1  UNL1       -0.2949
     29 H         143.2036  139.4065  169.3437 H       1  UNL1        0.1825
     30 H         143.6486  139.8466  172.1886 H       1  UNL1        0.2414
@<TRIPOS>BOND
     1     6     7    1
     2     7     8    2
     3     8     9    1
     4     9    10    2
     5    10    11    1
     6    11    12    2
     7    12    13    1
     8    13    14    1
     9    14    15    2
    10    15     1    1
    11     1     2    1
    12     2     3    1
    13     3     4    1
    14     4    16    1
    15    16    17    1
    16    17    18   ar
    17    18    19   ar
    18    19    20   ar
    19    20    23    1
    20    23    24    2
    21    24    25    1
    22    25    26    2
    23    25    27   am
    24    27    28    1
    25    20    21   ar
    26    21    22   ar
    27     4     5    1
    28    15     7    1
    29     5     1    1
    30    14     9    1
    31    22    17   ar
    32    27    29    1
    33    28    30    1
