@<TRIPOS>MOLECULE
*****
 35 38 0 0 0
SMALL
GASTEIGER

@<TRIPOS>ATOM
      1 C         140.4981  144.0575  158.1149 C.2     1  UNL1        0.2382
      2 O         139.5087  143.5260  157.1208 O.2     1  UNL1       -0.2735
      3 N         140.5648  143.4709  159.4938 N.am    1  UNL1       -0.2733
      4 C         141.5543  144.0024  160.4880 C.3     1  UNL1        0.1182
      5 C         141.6210  143.4158  161.8669 C.3     1  UNL1        0.1299
      6 N         140.6981  142.2976  162.2517 N.ar    1  UNL1       -0.3006
      7 C         139.7086  141.7661  161.2575 C.ar    1  UNL1        0.1375
      8 N         138.9327  140.6657  161.9187 N.ar    1  UNL1       -0.2280
      9 C         139.4426  140.5172  163.3215 C.ar    1  UNL1        0.1125
     10 C         140.5337  141.5258  163.5273 C.ar    1  UNL1        0.1318
     11 C         139.6420  142.3528  159.8786 C.3     1  UNL1        0.1109
     12 C         138.5662  141.3129  159.7716 C.3     1  UNL1        0.0276
     13 C         139.2017  142.5782  158.4625 C.3     1  UNL1        0.0276
     14 C         138.9483  139.5329  164.3399 C.ar    1  UNL1        0.0205
     15 C         138.3082  140.0209  165.6056 C.ar    1  UNL1        0.0039
     16 C         137.8139  139.0367  166.6239 C.ar    1  UNL1        0.0297
     17 C         137.9597  137.5645  166.3764 C.ar    1  UNL1        0.1401
     18 F         137.4654  136.5802  167.3948 F       1  UNL1       -0.2042
     19 C         138.5998  137.0765  165.1107 C.ar    1  UNL1        0.0297
     20 C         139.0941  138.0607  164.0924 C.ar    1  UNL1        0.0039
     21 C         140.3235  146.1673  157.9796 C.3     1  UNL1        0.0249
     22 C         141.4210  145.1757  157.7301 C.3     1  UNL1        0.1089
     23 C         142.5184  144.1841  157.4807 C.3     1  UNL1        0.0249
     24 N         142.3438  146.2939  157.3454 N.3     1  UNL1       -0.3164
     25 H         143.2566  145.9116  157.0982 H       1  UNL1        0.1192
     26 H         142.4457  146.9363  158.1311 H       1  UNL1        0.1192
     27 N         141.3221  141.7271  164.7874 N.pl3   1  UNL1       -0.2980
     28 H         141.3247  142.6059  165.2313 H       1  UNL1        0.1536
     29 C         142.1064  140.5897  165.3713 C.ar    1  UNL1        0.0495
     30 C         141.9664  140.2507  166.8258 C.ar    1  UNL1        0.0169
     31 C         142.7509  139.1132  167.4097 C.ar    1  UNL1        0.0309
     32 C         143.6752  138.3147  166.5390 C.ar    1  UNL1        0.1402
     33 F         144.4595  137.1772  167.1229 F       1  UNL1       -0.2042
     34 C         143.8151  138.6536  165.0846 C.ar    1  UNL1        0.0309
     35 C         143.0308  139.7911  164.5007 C.ar    1  UNL1        0.0169
@<TRIPOS>BOND
     1    21    22    1
     2    22    23    1
     3    22    24    1
     4    22     1    1
     5     1     2    2
     6     1     3   am
     7     3     4    1
     8     4     5    1
     9     5     6    1
    10     6     7   ar
    11     7     8   ar
    12     8     9   ar
    13     9    14    1
    14    14    15   ar
    15    15    16   ar
    16    16    17   ar
    17    17    18    1
    18    17    19   ar
    19    19    20   ar
    20     9    10   ar
    21    10    27    1
    22    27    29    1
    23    29    30   ar
    24    30    31   ar
    25    31    32   ar
    26    32    33    1
    27    32    34   ar
    28    34    35   ar
    29     7    11    1
    30    11    12    1
    31    11    13    1
    32    11     3    1
    33    10     6   ar
    34    35    29   ar
    35    20    14   ar
    36    24    25    1
    37    24    26    1
    38    27    28    1
@<TRIPOS>MOLECULE
*****
 35 38 0 0 0
SMALL
GASTEIGER

@<TRIPOS>ATOM
      1 C         140.3657  140.8602  169.6671 C.2     1  UNL1        0.2382
      2 O         139.2988  139.8709  170.0317 O.2     1  UNL1       -0.2735
      3 N         140.6399  141.1703  168.2254 N.am    1  UNL1       -0.2733
      4 C         141.7068  142.1596  167.8608 C.3     1  UNL1        0.1182
      5 C         141.9811  142.4697  166.4191 C.3     1  UNL1        0.1299
      6 N         141.1884  141.7905  165.3419 N.ar    1  UNL1       -0.3006
      7 C         140.1216  140.8012  165.7065 C.ar    1  UNL1        0.1375
      8 N         139.5072  140.2927  164.4360 N.ar    1  UNL1       -0.2280
      9 C         140.1944  140.9678  163.2862 C.ar    1  UNL1        0.1125
     10 C         141.2335  141.8935  163.8461 C.ar    1  UNL1        0.1318
     11 C         139.8473  140.4911  167.1482 C.3     1  UNL1        0.1109
     12 C         138.8376  139.5962  166.4926 C.3     1  UNL1        0.0276
     13 C         139.2223  139.8702  168.3622 C.3     1  UNL1        0.0276
     14 C         139.8951  140.7547  161.8319 C.ar    1  UNL1        0.0205
     15 C         138.7704  141.5032  161.1801 C.ar    1  UNL1        0.0039
     16 C         138.4711  141.2902  159.7258 C.ar    1  UNL1        0.0297
     17 C         139.2965  140.3286  158.9233 C.ar    1  UNL1        0.1401
     18 F         138.9972  140.1155  157.4689 F       1  UNL1       -0.2042
     19 C         140.4212  139.5801  159.5751 C.ar    1  UNL1        0.0297
     20 C         140.7205  139.7932  161.0294 C.ar    1  UNL1        0.0039
     21 C         142.1577  140.4213  170.7139 C.3     1  UNL1        0.0249
     22 C         141.1583  141.5394  170.7443 C.3     1  UNL1        0.1089
     23 C         140.1588  142.6575  170.7747 C.3     1  UNL1        0.0249
     24 N         141.9510  142.2186  171.8215 N.3     1  UNL1       -0.3164
     25 H         141.4899  143.0894  172.0852 H       1  UNL1        0.1192
     26 H         142.8892  142.4216  171.4766 H       1  UNL1        0.1192
     27 N         142.1557  142.7686  163.0500 N.pl3   1  UNL1       -0.2980
     28 H         143.1174  142.7895  163.2596 H       1  UNL1        0.1536
     29 C         141.6127  143.6118  161.9346 C.ar    1  UNL1        0.0495
     30 C         142.0578  143.3660  160.5235 C.ar    1  UNL1        0.0169
     31 C         141.5147  144.2093  159.4080 C.ar    1  UNL1        0.0309
     32 C         140.5266  145.2983  159.7039 C.ar    1  UNL1        0.1402
     33 F         139.9836  146.1415  158.5885 F       1  UNL1       -0.2042
     34 C         140.0814  145.5441  161.1150 C.ar    1  UNL1        0.0309
     35 C         140.6245  144.7009  162.2304 C.ar    1  UNL1        0.0169
@<TRIPOS>BOND
     1    21    22    1
     2    22    23    1
     3    22    24    1
     4    22     1    1
     5     1     2    2
     6     1     3   am
     7     3     4    1
     8     4     5    1
     9     5     6    1
    10     6     7   ar
    11     7     8   ar
    12     8     9   ar
    13     9    14    1
    14    14    15   ar
    15    15    16   ar
    16    16    17   ar
    17    17    18    1
    18    17    19   ar
    19    19    20   ar
    20     9    10   ar
    21    10    27    1
    22    27    29    1
    23    29    30   ar
    24    30    31   ar
    25    31    32   ar
    26    32    33    1
    27    32    34   ar
    28    34    35   ar
    29     7    11    1
    30    11    12    1
    31    11    13    1
    32    11     3    1
    33    10     6   ar
    34    35    29   ar
    35    20    14   ar
    36    24    25    1
    37    24    26    1
    38    27    28    1
@<TRIPOS>MOLECULE
*****
 35 38 0 0 0
SMALL
GASTEIGER

@<TRIPOS>ATOM
      1 C         140.8685  144.0107  159.3857 C.2     1  UNL1        0.2382
      2 O         140.8920  145.5104  159.3741 O.2     1  UNL1       -0.2735
      3 N         141.0107  143.2684  160.6813 N.am    1  UNL1       -0.2733
      4 C         140.9873  141.7686  160.6930 C.3     1  UNL1        0.1182
      5 C         141.1295  141.0263  161.9886 C.3     1  UNL1        0.1299
      6 N         141.2952  141.7837  163.2727 N.ar    1  UNL1       -0.3006
      7 C         141.3187  143.2835  163.2610 C.ar    1  UNL1        0.1375
      8 N         141.4950  143.7553  164.6740 N.ar    1  UNL1       -0.2280
      9 C         141.5805  142.5471  165.5588 C.ar    1  UNL1        0.1125
     10 C         141.4570  141.3286  164.6928 C.ar    1  UNL1        0.1318
     11 C         141.1765  144.0258  161.9654 C.3     1  UNL1        0.1109
     12 C         141.3087  145.1803  162.9139 C.3     1  UNL1        0.0276
     13 C         141.0802  145.1691  160.9992 C.3     1  UNL1        0.0276
     14 C         141.7583  142.5558  167.0483 C.ar    1  UNL1        0.0205
     15 C         143.0780  142.1705  167.6483 C.ar    1  UNL1        0.0039
     16 C         143.2558  142.1792  169.1377 C.ar    1  UNL1        0.0297
     17 C         142.1140  142.5732  170.0270 C.ar    1  UNL1        0.1401
     18 F         142.2918  142.5819  171.5165 F       1  UNL1       -0.2042
     19 C         140.7943  142.9585  169.4270 C.ar    1  UNL1        0.0297
     20 C         140.6165  142.9498  167.9376 C.ar    1  UNL1        0.0039
     21 C         142.1895  143.2644  157.9032 C.3     1  UNL1        0.0249
     22 C         140.7028  143.2533  158.1016 C.3     1  UNL1        0.1089
     23 C         139.2161  143.2421  158.3001 C.3     1  UNL1        0.0249
     24 N         140.5371  142.4958  156.8175 N.3     1  UNL1       -0.3164
     25 H         139.5464  142.3169  156.6537 H       1  UNL1        0.1192
     26 H         141.0372  141.6089  156.8790 H       1  UNL1        0.1192
     27 N         141.4896  139.9050  165.1640 N.pl3   1  UNL1       -0.2980
     28 H         142.3271  139.3896  165.1160 H       1  UNL1        0.1536
     29 C         140.2463  139.2665  165.7085 C.ar    1  UNL1        0.0495
     30 C         139.6743  138.0503  165.0424 C.ar    1  UNL1        0.0169
     31 C         138.4309  137.4118  165.5870 C.ar    1  UNL1        0.0309
     32 C         137.7596  137.9896  166.7976 C.ar    1  UNL1        0.1402
     33 F         136.5163  137.3511  167.3421 F       1  UNL1       -0.2042
     34 C         138.3317  139.2057  167.4637 C.ar    1  UNL1        0.0309
     35 C         139.5750  139.8442  166.9192 C.ar    1  UNL1        0.0169
@<TRIPOS>BOND
     1    21    22    1
     2    22    23    1
     3    22    24    1
     4    22     1    1
     5     1     2    2
     6     1     3   am
     7     3     4    1
     8     4     5    1
     9     5     6    1
    10     6     7   ar
    11     7     8   ar
    12     8     9   ar
    13     9    14    1
    14    14    15   ar
    15    15    16   ar
    16    16    17   ar
    17    17    18    1
    18    17    19   ar
    19    19    20   ar
    20     9    10   ar
    21    10    27    1
    22    27    29    1
    23    29    30   ar
    24    30    31   ar
    25    31    32   ar
    26    32    33    1
    27    32    34   ar
    28    34    35   ar
    29     7    11    1
    30    11    12    1
    31    11    13    1
    32    11     3    1
    33    10     6   ar
    34    35    29   ar
    35    20    14   ar
    36    24    25    1
    37    24    26    1
    38    27    28    1
@<TRIPOS>MOLECULE
*****
 35 38 0 0 0
SMALL
GASTEIGER

@<TRIPOS>ATOM
      1 C         141.8662  140.3671  169.7453 C.2     1  UNL1        0.2382
      2 O         143.0205  139.5077  170.1684 O.2     1  UNL1       -0.2735
      3 N         141.4464  140.4035  168.3058 N.am    1  UNL1       -0.2733
      4 C         140.2921  141.2629  167.8827 C.3     1  UNL1        0.1182
      5 C         139.8722  141.2994  166.4431 C.3     1  UNL1        0.1299
      6 N         140.6066  140.4764  165.4266 N.ar    1  UNL1       -0.3006
      7 C         141.7609  139.6170  165.8497 C.ar    1  UNL1        0.1375
      8 N         142.2903  138.9195  164.6317 N.ar    1  UNL1       -0.2280
      9 C         141.4632  139.3479  163.4560 C.ar    1  UNL1        0.1125
     10 C         140.4226  140.3101  163.9473 C.ar    1  UNL1        0.1318
     11 C         142.1808  139.5806  167.2892 C.3     1  UNL1        0.1109
     12 C         143.1817  138.6303  166.7018 C.3     1  UNL1        0.0276
     13 C         142.9483  139.2141  168.5248 C.3     1  UNL1        0.0276
     14 C         141.6448  138.8938  162.0379 C.ar    1  UNL1        0.0205
     15 C         142.8590  138.1012  161.6539 C.ar    1  UNL1        0.0039
     16 C         143.0406  137.6471  160.2359 C.ar    1  UNL1        0.0297
     17 C         142.0080  137.9856  159.2019 C.ar    1  UNL1        0.1401
     18 F         142.1896  137.5314  157.7838 F       1  UNL1       -0.2042
     19 C         140.7938  138.7781  159.5860 C.ar    1  UNL1        0.0297
     20 C         140.6122  139.2323  161.0040 C.ar    1  UNL1        0.0039
     21 C         140.1048  140.1053  170.8980 C.3     1  UNL1        0.0249
     22 C         141.1318  141.1900  170.7618 C.3     1  UNL1        0.1089
     23 C         142.1589  142.2748  170.6256 C.3     1  UNL1        0.0249
     24 N         140.3974  142.0130  171.7784 N.3     1  UNL1       -0.3164
     25 H         140.8893  142.8950  171.9215 H       1  UNL1        0.1192
     26 H         140.3513  141.5024  172.6602 H       1  UNL1        0.1192
     27 N         139.3809  140.9871  163.1067 N.pl3   1  UNL1       -0.2980
     28 H         138.6274  140.4678  162.7438 H       1  UNL1        0.1536
     29 C         139.4873  142.4554  162.8192 C.ar    1  UNL1        0.0495
     30 C         140.7544  143.0177  162.2462 C.ar    1  UNL1        0.0169
     31 C         140.8606  144.4861  161.9587 C.ar    1  UNL1        0.0309
     32 C         139.6997  145.3922  162.2440 C.ar    1  UNL1        0.1402
     33 F         139.8060  146.8605  161.9565 F       1  UNL1       -0.2042
     34 C         138.4326  144.8299  162.8170 C.ar    1  UNL1        0.0309
     35 C         138.3264  143.3616  163.1045 C.ar    1  UNL1        0.0169
@<TRIPOS>BOND
     1    21    22    1
     2    22    23    1
     3    22    24    1
     4    22     1    1
     5     1     2    2
     6     1     3   am
     7     3     4    1
     8     4     5    1
     9     5     6    1
    10     6     7   ar
    11     7     8   ar
    12     8     9   ar
    13     9    14    1
    14    14    15   ar
    15    15    16   ar
    16    16    17   ar
    17    17    18    1
    18    17    19   ar
    19    19    20   ar
    20     9    10   ar
    21    10    27    1
    22    27    29    1
    23    29    30   ar
    24    30    31   ar
    25    31    32   ar
    26    32    33    1
    27    32    34   ar
    28    34    35   ar
    29     7    11    1
    30    11    12    1
    31    11    13    1
    32    11     3    1
    33    10     6   ar
    34    35    29   ar
    35    20    14   ar
    36    24    25    1
    37    24    26    1
    38    27    28    1
@<TRIPOS>MOLECULE
*****
 35 38 0 0 0
SMALL
GASTEIGER

@<TRIPOS>ATOM
      1 C         141.2255  139.8971  169.4627 C.2     1  UNL1        0.2382
      2 O         139.8641  139.7216  170.0674 O.2     1  UNL1       -0.2735
      3 N         141.3702  140.0800  167.9809 N.am    1  UNL1       -0.2733
      4 C         142.7316  140.2555  167.3763 C.3     1  UNL1        0.1182
      5 C         142.8762  140.4384  165.8945 C.3     1  UNL1        0.1299
      6 N         141.6594  140.4458  165.0174 N.ar    1  UNL1       -0.3006
      7 C         140.2980  140.2703  165.6221 C.ar    1  UNL1        0.1375
      8 N         139.2885  140.3205  164.5137 N.ar    1  UNL1       -0.2280
      9 C         140.0261  140.5271  163.2240 C.ar    1  UNL1        0.1125
     10 C         141.4914  140.6045  163.5353 C.ar    1  UNL1        0.1318
     11 C         140.1534  140.0874  167.1038 C.3     1  UNL1        0.1109
     12 C         138.7126  140.0235  166.6916 C.3     1  UNL1        0.0276
     13 C         139.5083  139.8823  168.4424 C.3     1  UNL1        0.0276
     14 C         139.4071  140.6369  161.8621 C.ar    1  UNL1        0.0205
     15 C         139.0938  141.9865  161.2873 C.ar    1  UNL1        0.0039
     16 C         138.4748  142.0964  159.9254 C.ar    1  UNL1        0.0297
     17 C         138.1691  140.8567  159.1383 C.ar    1  UNL1        0.1401
     18 F         137.5501  140.9666  157.7764 F       1  UNL1       -0.2042
     19 C         138.4824  139.5071  159.7131 C.ar    1  UNL1        0.0297
     20 C         139.1014  139.3972  161.0750 C.ar    1  UNL1        0.0039
     21 C         142.6506  138.4351  170.0386 C.3     1  UNL1        0.0249
     22 C         142.4423  139.8897  170.3398 C.3     1  UNL1        0.1089
     23 C         142.2340  141.3443  170.6410 C.3     1  UNL1        0.0249
     24 N         143.6592  139.8823  171.2169 N.3     1  UNL1       -0.3164
     25 H         143.8014  140.8132  171.6089 H       1  UNL1        0.1192
     26 H         144.4748  139.6176  170.6646 H       1  UNL1        0.1192
     27 N         142.5949  140.8053  162.5394 N.pl3   1  UNL1       -0.2980
     28 H         143.2606  141.5171  162.6792 H       1  UNL1        0.1536
     29 C         142.6843  139.9218  161.3306 C.ar    1  UNL1        0.0495
     30 C         142.5725  140.5156  159.9577 C.ar    1  UNL1        0.0169
     31 C         142.6619  139.6319  158.7488 C.ar    1  UNL1        0.0309
     32 C         142.8631  138.1546  158.9129 C.ar    1  UNL1        0.1402
     33 F         142.9525  137.2710  157.7040 F       1  UNL1       -0.2042
     34 C         142.9749  137.5608  160.2858 C.ar    1  UNL1        0.0309
     35 C         142.8855  138.4444  161.4946 C.ar    1  UNL1        0.0169
@<TRIPOS>BOND
     1    21    22    1
     2    22    23    1
     3    22    24    1
     4    22     1    1
     5     1     2    2
     6     1     3   am
     7     3     4    1
     8     4     5    1
     9     5     6    1
    10     6     7   ar
    11     7     8   ar
    12     8     9   ar
    13     9    14    1
    14    14    15   ar
    15    15    16   ar
    16    16    17   ar
    17    17    18    1
    18    17    19   ar
    19    19    20   ar
    20     9    10   ar
    21    10    27    1
    22    27    29    1
    23    29    30   ar
    24    30    31   ar
    25    31    32   ar
    26    32    33    1
    27    32    34   ar
    28    34    35   ar
    29     7    11    1
    30    11    12    1
    31    11    13    1
    32    11     3    1
    33    10     6   ar
    34    35    29   ar
    35    20    14   ar
    36    24    25    1
    37    24    26    1
    38    27    28    1
@<TRIPOS>MOLECULE
*****
 35 38 0 0 0
SMALL
GASTEIGER

@<TRIPOS>ATOM
      1 C         142.1066  138.3990  157.0919 C.2     1  UNL1        0.2382
      2 O         140.8345  138.5208  156.3064 O.2     1  UNL1       -0.2735
      3 N         142.0631  138.3765  158.5911 N.am    1  UNL1       -0.2733
      4 C         143.3351  138.2547  159.3765 C.3     1  UNL1        0.1182
      5 C         143.2917  138.2322  160.8757 C.3     1  UNL1        0.1299
      6 N         141.9761  138.3315  161.5895 N.ar    1  UNL1       -0.3006
      7 C         140.7041  138.4534  160.8040 C.ar    1  UNL1        0.1375
      8 N         139.5647  138.5332  161.7764 N.ar    1  UNL1       -0.2280
      9 C         140.1326  138.4608  163.1628 C.ar    1  UNL1        0.1125
     10 C         141.6230  138.3361  163.0473 C.ar    1  UNL1        0.1318
     11 C         140.7476  138.4759  159.3048 C.3     1  UNL1        0.1109
     12 C         139.2688  138.5977  159.5244 C.3     1  UNL1        0.0276
     13 C         140.2774  138.5407  157.8819 C.3     1  UNL1        0.0276
     14 C         139.3480  138.5051  164.4405 C.ar    1  UNL1        0.0205
     15 C         138.8390  137.2338  165.0526 C.ar    1  UNL1        0.0039
     16 C         138.0544  137.2781  166.3302 C.ar    1  UNL1        0.0297
     17 C         137.7788  138.5938  166.9958 C.ar    1  UNL1        0.1401
     18 F         136.9941  138.6382  168.2735 F       1  UNL1       -0.2042
     19 C         138.2877  139.8651  166.3837 C.ar    1  UNL1        0.0297
     20 C         139.0723  139.8208  165.1060 C.ar    1  UNL1        0.0039
     21 C         143.2763  136.8080  156.3171 C.3     1  UNL1        0.0249
     22 C         143.4221  138.2996  156.3781 C.3     1  UNL1        0.1089
     23 C         143.5679  139.7912  156.4391 C.3     1  UNL1        0.0249
     24 N         144.7377  138.2002  155.6643 N.3     1  UNL1       -0.3164
     25 H         145.1294  139.1340  155.5416 H       1  UNL1        0.1192
     26 H         144.5973  137.7677  154.7513 H       1  UNL1        0.1192
     27 N         142.5903  138.2339  164.1891 N.pl3   1  UNL1       -0.2980
     28 H         143.1550  137.4333  164.2857 H       1  UNL1        0.1536
     29 C         142.6974  139.3516  165.1837 C.ar    1  UNL1        0.0495
     30 C         143.0623  140.7321  164.7243 C.ar    1  UNL1        0.0169
     31 C         143.1694  141.8498  165.7191 C.ar    1  UNL1        0.0309
     32 C         142.9115  141.5869  167.1732 C.ar    1  UNL1        0.1402
     33 F         143.0186  142.7045  168.1678 F       1  UNL1       -0.2042
     34 C         142.5466  140.2064  167.6326 C.ar    1  UNL1        0.0309
     35 C         142.4395  139.0888  166.6379 C.ar    1  UNL1        0.0169
@<TRIPOS>BOND
     1    21    22    1
     2    22    23    1
     3    22    24    1
     4    22     1    1
     5     1     2    2
     6     1     3   am
     7     3     4    1
     8     4     5    1
     9     5     6    1
    10     6     7   ar
    11     7     8   ar
    12     8     9   ar
    13     9    14    1
    14    14    15   ar
    15    15    16   ar
    16    16    17   ar
    17    17    18    1
    18    17    19   ar
    19    19    20   ar
    20     9    10   ar
    21    10    27    1
    22    27    29    1
    23    29    30   ar
    24    30    31   ar
    25    31    32   ar
    26    32    33    1
    27    32    34   ar
    28    34    35   ar
    29     7    11    1
    30    11    12    1
    31    11    13    1
    32    11     3    1
    33    10     6   ar
    34    35    29   ar
    35    20    14   ar
    36    24    25    1
    37    24    26    1
    38    27    28    1
@<TRIPOS>MOLECULE
*****
 35 38 0 0 0
SMALL
GASTEIGER

@<TRIPOS>ATOM
      1 C         140.2062  140.8417  169.6706 C.2     1  UNL1        0.2382
      2 O         139.1700  139.8430  170.0936 O.2     1  UNL1       -0.2735
      3 N         140.4368  141.1116  168.2132 N.am    1  UNL1       -0.2733
      4 C         141.4729  142.1103  167.7902 C.3     1  UNL1        0.1182
      5 C         141.7035  142.3803  166.3328 C.3     1  UNL1        0.1299
      6 N         140.8979  141.6515  165.2984 N.ar    1  UNL1       -0.3006
      7 C         139.8618  140.6528  165.7214 C.ar    1  UNL1        0.1375
      8 N         139.2258  140.0922  164.4839 N.ar    1  UNL1       -0.2280
      9 C         139.8690  140.7444  163.2961 C.ar    1  UNL1        0.1125
     10 C         140.9024  141.7081  163.7995 C.ar    1  UNL1        0.1318
     11 C         139.6312  140.3829  167.1788 C.3     1  UNL1        0.1109
     12 C         138.6241  139.4475  166.5781 C.3     1  UNL1        0.0276
     13 C         139.0508  139.7881  168.4275 C.3     1  UNL1        0.0276
     14 C         139.5370  140.4795  161.8574 C.ar    1  UNL1        0.0205
     15 C         139.9819  139.2027  161.2079 C.ar    1  UNL1        0.0039
     16 C         139.6500  138.9378  159.7693 C.ar    1  UNL1        0.0297
     17 C         138.8732  139.9497  158.9803 C.ar    1  UNL1        0.1401
     18 F         138.5412  139.6848  157.5416 F       1  UNL1       -0.2042
     19 C         138.4283  141.2265  159.6298 C.ar    1  UNL1        0.0297
     20 C         138.7602  141.4914  161.0684 C.ar    1  UNL1        0.0039
     21 C         140.0017  142.6794  170.7102 C.3     1  UNL1        0.0249
     22 C         141.0117  141.5704  170.7049 C.3     1  UNL1        0.1089
     23 C         142.0217  140.4615  170.6997 C.3     1  UNL1        0.0249
     24 N         141.8173  142.2993  171.7394 N.3     1  UNL1       -0.3164
     25 H         142.6474  141.7535  171.9705 H       1  UNL1        0.1192
     26 H         141.2529  142.4317  172.5786 H       1  UNL1        0.1192
     27 N         141.7852  142.5761  162.9527 N.pl3   1  UNL1       -0.2980
     28 H         141.9277  143.5194  163.1961 H       1  UNL1        0.1536
     29 C         142.4510  142.0070  161.7350 C.ar    1  UNL1        0.0495
     30 C         142.2493  142.6557  160.3976 C.ar    1  UNL1        0.0169
     31 C         142.9152  142.0865  159.1799 C.ar    1  UNL1        0.0309
     32 C         143.7828  140.8687  159.2996 C.ar    1  UNL1        0.1402
     33 F         144.4486  140.2997  158.0819 F       1  UNL1       -0.2042
     34 C         143.9845  140.2201  160.6370 C.ar    1  UNL1        0.0309
     35 C         143.3187  140.7892  161.8546 C.ar    1  UNL1        0.0169
@<TRIPOS>BOND
     1    21    22    1
     2    22    23    1
     3    22    24    1
     4    22     1    1
     5     1     2    2
     6     1     3   am
     7     3     4    1
     8     4     5    1
     9     5     6    1
    10     6     7   ar
    11     7     8   ar
    12     8     9   ar
    13     9    14    1
    14    14    15   ar
    15    15    16   ar
    16    16    17   ar
    17    17    18    1
    18    17    19   ar
    19    19    20   ar
    20     9    10   ar
    21    10    27    1
    22    27    29    1
    23    29    30   ar
    24    30    31   ar
    25    31    32   ar
    26    32    33    1
    27    32    34   ar
    28    34    35   ar
    29     7    11    1
    30    11    12    1
    31    11    13    1
    32    11     3    1
    33    10     6   ar
    34    35    29   ar
    35    20    14   ar
    36    24    25    1
    37    24    26    1
    38    27    28    1
@<TRIPOS>MOLECULE
*****
 35 38 0 0 0
SMALL
GASTEIGER

@<TRIPOS>ATOM
      1 C         141.9407  140.3380  169.6959 C.2     1  UNL1        0.2382
      2 O         142.8023  139.1851  170.1183 O.2     1  UNL1       -0.2735
      3 N         141.7371  140.6276  168.2383 N.am    1  UNL1       -0.2733
      4 C         140.8755  141.7805  167.8159 C.3     1  UNL1        0.1182
      5 C         140.6718  142.0702  166.3583 C.3     1  UNL1        0.1299
      6 N         141.3299  141.2069  165.3231 N.ar    1  UNL1       -0.3006
      7 C         142.1915  140.0540  165.7454 C.ar    1  UNL1        0.1375
      8 N         142.7073  139.3827  164.5071 N.ar    1  UNL1       -0.2280
      9 C         142.1644  140.1208  163.3194 C.ar    1  UNL1        0.1125
     10 C         141.3131  141.2482  163.8237 C.ar    1  UNL1        0.1318
     11 C         142.3951  139.7644  167.2030 C.3     1  UNL1        0.1109
     12 C         143.2238  138.6684  166.6014 C.3     1  UNL1        0.0276
     13 C         142.8865  139.0941  168.4517 C.3     1  UNL1        0.0276
     14 C         142.4268  139.7896  161.8801 C.ar    1  UNL1        0.0205
     15 C         141.6447  138.7013  161.2063 C.ar    1  UNL1        0.0039
     16 C         141.9070  138.3701  159.7671 C.ar    1  UNL1        0.0297
     17 C         142.9514  139.1272  159.0016 C.ar    1  UNL1        0.1401
     18 F         143.2138  138.7961  157.5623 F       1  UNL1       -0.2042
     19 C         143.7335  140.2155  159.6754 C.ar    1  UNL1        0.0297
     20 C         143.4712  140.5467  161.1146 C.ar    1  UNL1        0.0039
     21 C         142.4207  142.1744  170.6430 C.3     1  UNL1        0.0249
     22 C         141.2827  141.2012  170.7312 C.3     1  UNL1        0.1089
     23 C         140.1447  140.2280  170.8193 C.3     1  UNL1        0.0249
     24 N         140.6247  142.0646  171.7665 N.3     1  UNL1       -0.3164
     25 H         139.7459  141.6363  172.0577 H       1  UNL1        0.1192
     26 H         140.4392  142.9868  171.3722 H       1  UNL1        0.1192
     27 N         140.5747  142.2423  162.9773 N.pl3   1  UNL1       -0.2980
     28 H         140.6007  143.1994  163.2065 H       1  UNL1        0.1536
     29 C         139.7968  141.7783  161.7817 C.ar    1  UNL1        0.0495
     30 C         140.1707  142.2588  160.4109 C.ar    1  UNL1        0.0169
     31 C         139.3927  141.7947  159.2153 C.ar    1  UNL1        0.0309
     32 C         138.2408  140.8501  159.3906 C.ar    1  UNL1        0.1402
     33 F         137.4628  140.3860  158.1950 F       1  UNL1       -0.2042
     34 C         137.8669  140.3695  160.7615 C.ar    1  UNL1        0.0309
     35 C         138.6449  140.8336  161.9570 C.ar    1  UNL1        0.0169
@<TRIPOS>BOND
     1    21    22    1
     2    22    23    1
     3    22    24    1
     4    22     1    1
     5     1     2    2
     6     1     3   am
     7     3     4    1
     8     4     5    1
     9     5     6    1
    10     6     7   ar
    11     7     8   ar
    12     8     9   ar
    13     9    14    1
    14    14    15   ar
    15    15    16   ar
    16    16    17   ar
    17    17    18    1
    18    17    19   ar
    19    19    20   ar
    20     9    10   ar
    21    10    27    1
    22    27    29    1
    23    29    30   ar
    24    30    31   ar
    25    31    32   ar
    26    32    33    1
    27    32    34   ar
    28    34    35   ar
    29     7    11    1
    30    11    12    1
    31    11    13    1
    32    11     3    1
    33    10     6   ar
    34    35    29   ar
    35    20    14   ar
    36    24    25    1
    37    24    26    1
    38    27    28    1
@<TRIPOS>MOLECULE
*****
 35 38 0 0 0
SMALL
GASTEIGER

@<TRIPOS>ATOM
      1 C         140.1418  140.8061  169.4727 C.2     1  UNL1        0.2382
      2 O         138.9204  139.9678  169.7081 O.2     1  UNL1       -0.2735
      3 N         140.7515  140.8754  168.1040 N.am    1  UNL1       -0.2733
      4 C         141.9729  141.7137  167.8686 C.3     1  UNL1        0.1182
      5 C         142.5827  141.7830  166.4999 C.3     1  UNL1        0.1299
      6 N         141.9710  141.0141  165.3665 N.ar    1  UNL1       -0.3006
      7 C         140.7496  140.1758  165.6019 C.ar    1  UNL1        0.1375
      8 N         140.3711  139.5326  164.3007 N.ar    1  UNL1       -0.2280
      9 C         141.3585  139.9734  163.2612 C.ar    1  UNL1        0.1125
     10 C         142.3473  140.8890  163.9199 C.ar    1  UNL1        0.1318
     11 C         140.1399  140.1065  166.9706 C.3     1  UNL1        0.1109
     12 C         139.2035  139.2047  166.2223 C.3     1  UNL1        0.0276
     13 C         139.2049  139.7239  168.0794 C.3     1  UNL1        0.0276
     14 C         141.3574  139.5694  161.8166 C.ar    1  UNL1        0.0205
     15 C         140.3889  140.2020  160.8617 C.ar    1  UNL1        0.0039
     16 C         140.3878  139.7981  159.4171 C.ar    1  UNL1        0.0297
     17 C         141.3552  138.7617  158.9274 C.ar    1  UNL1        0.1401
     18 F         141.3541  138.3578  157.4828 F       1  UNL1       -0.2042
     19 C         142.3237  138.1291  159.8823 C.ar    1  UNL1        0.0297
     20 C         142.3248  138.5330  161.3268 C.ar    1  UNL1        0.0039
     21 C         141.7059  140.4442  170.8593 C.3     1  UNL1        0.0249
     22 C         140.7535  141.5750  170.6061 C.3     1  UNL1        0.1089
     23 C         139.8010  142.7058  170.3529 C.3     1  UNL1        0.0249
     24 N         141.3652  142.3440  171.7395 N.3     1  UNL1       -0.3164
     25 H         140.8932  143.2432  171.8341 H       1  UNL1        0.1192
     26 H         142.3556  142.4980  171.5505 H       1  UNL1        0.1192
     27 N         143.5086  141.5614  163.2497 N.pl3   1  UNL1       -0.2980
     28 H         144.3827  141.5997  163.7010 H       1  UNL1        0.1536
     29 C         143.3382  142.1756  161.8919 C.ar    1  UNL1        0.0495
     30 C         144.1840  141.7070  160.7452 C.ar    1  UNL1        0.0169
     31 C         144.0135  142.3213  159.3873 C.ar    1  UNL1        0.0309
     32 C         142.9971  143.4040  159.1762 C.ar    1  UNL1        0.1402
     33 F         142.8267  144.0182  157.8184 F       1  UNL1       -0.2042
     34 C         142.1512  143.8726  160.3229 C.ar    1  UNL1        0.0309
     35 C         142.3218  143.2584  161.6807 C.ar    1  UNL1        0.0169
@<TRIPOS>BOND
     1    21    22    1
     2    22    23    1
     3    22    24    1
     4    22     1    1
     5     1     2    2
     6     1     3   am
     7     3     4    1
     8     4     5    1
     9     5     6    1
    10     6     7   ar
    11     7     8   ar
    12     8     9   ar
    13     9    14    1
    14    14    15   ar
    15    15    16   ar
    16    16    17   ar
    17    17    18    1
    18    17    19   ar
    19    19    20   ar
    20     9    10   ar
    21    10    27    1
    22    27    29    1
    23    29    30   ar
    24    30    31   ar
    25    31    32   ar
    26    32    33    1
    27    32    34   ar
    28    34    35   ar
    29     7    11    1
    30    11    12    1
    31    11    13    1
    32    11     3    1
    33    10     6   ar
    34    35    29   ar
    35    20    14   ar
    36    24    25    1
    37    24    26    1
    38    27    28    1
