@<TRIPOS>MOLECULE
*****
 37 40 0 0 0
SMALL
GASTEIGER

@<TRIPOS>ATOM
      1 C         142.4406  138.0914  163.0200 C.3     1  UNL1        0.2722
      2 C         142.2639  138.5908  164.4234 C.2     1  UNL1        0.2701
      3 O         143.1160  138.0403  165.5283 O.2     1  UNL1       -0.2707
      4 N         141.2350  139.6408  164.7218 N.am    1  UNL1       -0.2663
      5 H         140.6758  140.0021  163.9966 H       1  UNL1        0.1564
      6 C         141.0583  140.1403  166.1251 C.ar    1  UNL1        0.1343
      7 C         139.8473  139.7426  166.9158 C.ar    1  UNL1        0.0352
      8 C         139.6706  140.2420  168.3191 C.ar    1  UNL1        0.0147
      9 C         140.7049  141.1393  168.9317 C.ar    1  UNL1        0.0877
     10 C         141.9159  141.5370  168.1410 C.ar    1  UNL1        0.1105
     11 N         142.0926  141.0375  166.7376 N.ar    1  UNL1       -0.2283
     12 C         140.5282  141.6387  170.3350 C.1     1  UNL1        0.1020
     13 N         140.3514  142.1382  171.7384 N.1     1  UNL1       -0.1908
     14 C         143.7199  138.3591  162.2842 C.3     1  UNL1        0.1951
     15 O         143.8767  139.6197  161.4865 O.3     1  UNL1       -0.3493
     16 C         145.1431  140.7253  163.4674 C.3     1  UNL1        0.0347
     17 C         144.5188  140.8250  162.1071 C.3     1  UNL1        0.1446
     18 C         144.5364  142.1298  161.3676 C.3     1  UNL1        0.1666
     19 O         145.0722  143.3623  162.0338 O.3     1  UNL1       -0.3795
     20 H         144.4971  143.6044  162.7765 H       1  UNL1        0.2105
     21 O         141.3378  137.3243  162.3525 O.3     1  UNL1       -0.4517
     22 C         140.1497  138.0507  161.7951 C.ar    1  UNL1        0.2312
     23 N         138.9214  138.2357  162.6360 N.ar    1  UNL1       -0.1892
     24 C         137.7333  138.9621  162.0785 C.ar    1  UNL1        0.2029
     25 N         137.7736  139.5035  160.6802 N.ar    1  UNL1       -0.2045
     26 C         139.0018  139.3186  159.8394 C.ar    1  UNL1        0.1732
     27 C         140.1899  138.5922  160.3968 C.ar    1  UNL1        0.1099
     28 C         141.2536  138.5634  159.3396 C.ar    1  UNL1        0.1283
     29 N         140.7230  139.2720  158.1287 N.ar    1  UNL1       -0.1606
     30 N         139.3313  139.7388  158.4376 N.ar    1  UNL1       -0.1936
     31 C         138.4276  140.4932  157.5080 C.ar    1  UNL1        0.1759
     32 N         137.7437  139.7771  156.3814 N.ar    1  UNL1       -0.2242
     33 C         136.8401  140.5316  155.4517 C.ar    1  UNL1        0.1006
     34 C         136.6203  142.0023  155.6487 C.ar    1  UNL1        0.0217
     35 C         137.3042  142.7184  156.7754 C.ar    1  UNL1        0.0161
     36 C         138.2079  141.9639  157.7050 C.ar    1  UNL1        0.0935
     37 CL        138.8917  142.6801  158.8317 Cl      1  UNL1       -0.0790
@<TRIPOS>BOND
     1    17    16    1
     2    17    18    1
     3    18    19    1
     4    17    15    1
     5    15    14    1
     6     1    14    1
     7     1    21    1
     8    21    22    1
     9    22    23   ar
    10    23    24   ar
    11    24    25   ar
    12    25    26   ar
    13    26    27   ar
    14    27    28   ar
    15    28    29   ar
    16    29    30   ar
    17    30    31    1
    18    31    32   ar
    19    32    33   ar
    20    33    34   ar
    21    34    35   ar
    22    35    36   ar
    23    36    37    1
    24     1     2    1
    25     2     3    2
    26     2     4   am
    27     4     6    1
    28     6     7   ar
    29     7     8   ar
    30     8     9   ar
    31     9    12    1
    32    12    13    3
    33     9    10   ar
    34    10    11   ar
    35    27    22   ar
    36    36    31   ar
    37    11     6   ar
    38    30    26   ar
    39    19    20    1
    40     4     5    1
@<TRIPOS>MOLECULE
*****
 37 40 0 0 0
SMALL
GASTEIGER

@<TRIPOS>ATOM
      1 C         139.2176  138.6468  162.6294 C.3     1  UNL1        0.2722
      2 C         139.5766  138.9900  164.0449 C.2     1  UNL1        0.2701
      3 O         140.5521  138.1361  164.7993 O.2     1  UNL1       -0.2707
      4 N         138.9601  140.1871  164.7058 N.am    1  UNL1       -0.2663
      5 H         138.3198  140.7475  164.2106 H       1  UNL1        0.1564
      6 C         139.3190  140.5303  166.1212 C.ar    1  UNL1        0.1343
      7 C         138.8926  139.6299  167.2425 C.ar    1  UNL1        0.0352
      8 C         139.2516  139.9731  168.6579 C.ar    1  UNL1        0.0147
      9 C         140.0369  141.2169  168.9519 C.ar    1  UNL1        0.0877
     10 C         140.4633  142.1173  167.8306 C.ar    1  UNL1        0.1105
     11 N         140.1043  141.7740  166.4152 N.ar    1  UNL1       -0.2283
     12 C         140.3959  141.5601  170.3673 C.1     1  UNL1        0.1020
     13 N         140.7549  141.9033  171.7827 N.1     1  UNL1       -0.1908
     14 C         138.0200  139.2795  161.9850 C.3     1  UNL1        0.1951
     15 O         137.8589  140.7707  162.0026 O.3     1  UNL1       -0.3493
     16 C         138.5250  142.1177  159.8832 C.3     1  UNL1        0.0347
     17 C         138.8379  141.6395  161.2701 C.3     1  UNL1        0.1446
     18 C         140.1299  142.0302  161.9245 C.3     1  UNL1        0.1666
     19 O         140.1269  142.5854  163.3179 O.3     1  UNL1       -0.3795
     20 H         139.6762  143.4443  163.3228 H       1  UNL1        0.2105
     21 O         140.0563  137.6709  161.8585 O.3     1  UNL1       -0.4517
     22 C         141.4329  138.0586  161.4061 C.ar    1  UNL1        0.2312
     23 N         142.6196  137.7584  162.2730 N.ar    1  UNL1       -0.1892
     24 C         143.9962  138.1461  161.8205 C.ar    1  UNL1        0.2029
     25 N         144.1860  138.8340  160.5012 N.ar    1  UNL1       -0.2045
     26 C         142.9993  139.1343  159.6343 C.ar    1  UNL1        0.1732
     27 C         141.6228  138.7466  160.0868 C.ar    1  UNL1        0.1099
     28 C         140.6499  139.1694  159.0261 C.ar    1  UNL1        0.1283
     29 N         141.4253  139.8184  157.9182 N.ar    1  UNL1       -0.1606
     30 N         142.8773  139.7967  158.2941 N.ar    1  UNL1       -0.1936
     31 C         144.0086  140.3418  157.4737 C.ar    1  UNL1        0.1759
     32 N         144.5417  139.5539  156.3140 N.ar    1  UNL1       -0.2242
     33 C         145.6731  140.0989  155.4937 C.ar    1  UNL1        0.1006
     34 C         146.2714  141.4319  155.8331 C.ar    1  UNL1        0.0217
     35 C         145.7383  142.2198  156.9928 C.ar    1  UNL1        0.0161
     36 C         144.6070  141.6747  157.8131 C.ar    1  UNL1        0.0935
     37 CL        144.0739  142.4627  158.9728 Cl      1  UNL1       -0.0790
@<TRIPOS>BOND
     1    17    16    1
     2    17    18    1
     3    18    19    1
     4    17    15    1
     5    15    14    1
     6     1    14    1
     7     1    21    1
     8    21    22    1
     9    22    23   ar
    10    23    24   ar
    11    24    25   ar
    12    25    26   ar
    13    26    27   ar
    14    27    28   ar
    15    28    29   ar
    16    29    30   ar
    17    30    31    1
    18    31    32   ar
    19    32    33   ar
    20    33    34   ar
    21    34    35   ar
    22    35    36   ar
    23    36    37    1
    24     1     2    1
    25     2     3    2
    26     2     4   am
    27     4     6    1
    28     6     7   ar
    29     7     8   ar
    30     8     9   ar
    31     9    12    1
    32    12    13    3
    33     9    10   ar
    34    10    11   ar
    35    27    22   ar
    36    36    31   ar
    37    11     6   ar
    38    30    26   ar
    39    19    20    1
    40     4     5    1
@<TRIPOS>MOLECULE
*****
 37 40 0 0 0
SMALL
GASTEIGER

@<TRIPOS>ATOM
      1 C         138.0455  142.7897  163.6988 C.3     1  UNL1        0.2722
      2 C         138.7250  141.9062  164.7027 C.2     1  UNL1        0.2701
      3 O         138.2003  140.5253  164.9632 O.2     1  UNL1       -0.2707
      4 N         139.9292  142.4035  165.4460 N.am    1  UNL1       -0.2663
      5 H         140.2736  143.3098  165.2750 H       1  UNL1        0.1564
      6 C         140.6087  141.5200  166.4499 C.ar    1  UNL1        0.1343
      7 C         141.9159  140.8670  166.1110 C.ar    1  UNL1        0.0352
      8 C         142.5953  139.9835  167.1148 C.ar    1  UNL1        0.0147
      9 C         141.9676  139.7531  168.4576 C.ar    1  UNL1        0.0877
     10 C         140.6605  140.4061  168.7965 C.ar    1  UNL1        0.1105
     11 N         139.9810  141.2896  167.7925 N.ar    1  UNL1       -0.2283
     12 C         142.6471  138.8696  169.4615 C.1     1  UNL1        0.1020
     13 N         143.3266  137.9861  170.4653 N.1     1  UNL1       -0.1908
     14 C         138.0873  144.2802  163.8617 C.3     1  UNL1        0.1951
     15 O         139.3464  144.9487  164.3284 O.3     1  UNL1       -0.3493
     16 C         141.8721  145.1095  163.7408 C.3     1  UNL1        0.0347
     17 C         140.4338  145.2693  163.3460 C.3     1  UNL1        0.1446
     18 C         140.0829  145.7495  161.9690 C.3     1  UNL1        0.1666
     19 O         141.0923  145.6588  160.8632 O.3     1  UNL1       -0.3795
     20 H         141.8372  146.2494  161.0562 H       1  UNL1        0.2105
     21 O         137.3243  142.1827  162.5320 O.3     1  UNL1       -0.4517
     22 C         138.0481  141.9576  161.2375 C.ar    1  UNL1        0.2312
     23 N         138.2955  143.1076  160.3068 N.ar    1  UNL1       -0.1892
     24 C         139.0192  142.8825  159.0124 C.ar    1  UNL1        0.2029
     25 N         139.4955  141.5074  158.6487 N.ar    1  UNL1       -0.2045
     26 C         139.2481  140.3575  159.5795 C.ar    1  UNL1        0.1732
     27 C         138.5244  140.5825  160.8739 C.ar    1  UNL1        0.1099
     28 C         138.4264  139.2656  161.5853 C.ar    1  UNL1        0.1283
     29 N         139.0896  138.2266  160.7305 N.ar    1  UNL1       -0.1606
     30 N         139.5974  138.9014  159.4908 N.ar    1  UNL1       -0.1936
     31 C         140.3266  138.2369  158.3609 C.ar    1  UNL1        0.1759
     32 N         139.5569  137.6303  157.2253 N.ar    1  UNL1       -0.2242
     33 C         140.2861  136.9657  156.0954 C.ar    1  UNL1        0.1006
     34 C         141.7849  136.9077  156.1011 C.ar    1  UNL1        0.0217
     35 C         142.5546  137.5143  157.2367 C.ar    1  UNL1        0.0161
     36 C         141.8254  138.1789  158.3666 C.ar    1  UNL1        0.0935
     37 CL        142.5952  138.7854  159.5022 Cl      1  UNL1       -0.0790
@<TRIPOS>BOND
     1    17    16    1
     2    17    18    1
     3    18    19    1
     4    17    15    1
     5    15    14    1
     6     1    14    1
     7     1    21    1
     8    21    22    1
     9    22    23   ar
    10    23    24   ar
    11    24    25   ar
    12    25    26   ar
    13    26    27   ar
    14    27    28   ar
    15    28    29   ar
    16    29    30   ar
    17    30    31    1
    18    31    32   ar
    19    32    33   ar
    20    33    34   ar
    21    34    35   ar
    22    35    36   ar
    23    36    37    1
    24     1     2    1
    25     2     3    2
    26     2     4   am
    27     4     6    1
    28     6     7   ar
    29     7     8   ar
    30     8     9   ar
    31     9    12    1
    32    12    13    3
    33     9    10   ar
    34    10    11   ar
    35    27    22   ar
    36    36    31   ar
    37    11     6   ar
    38    30    26   ar
    39    19    20    1
    40     4     5    1
@<TRIPOS>MOLECULE
*****
 37 40 0 0 0
SMALL
GASTEIGER

@<TRIPOS>ATOM
      1 C         140.9421  143.5442  159.4084 C.3     1  UNL1        0.2722
      2 C         140.9724  144.6216  158.3651 C.2     1  UNL1        0.2701
      3 O         142.1227  145.5827  158.3127 O.2     1  UNL1       -0.2707
      4 N         139.8523  144.7377  157.3742 N.am    1  UNL1       -0.2663
      5 H         139.0972  144.1068  157.4086 H       1  UNL1        0.1564
      6 C         139.8825  145.8150  156.3310 C.ar    1  UNL1        0.1343
      7 C         139.1067  147.0819  156.5384 C.ar    1  UNL1        0.0352
      8 C         139.1369  148.1592  155.4951 C.ar    1  UNL1        0.0147
      9 C         139.9430  147.9697  154.2444 C.ar    1  UNL1        0.0877
     10 C         140.7189  146.7028  154.0369 C.ar    1  UNL1        0.1105
     11 N         140.6886  145.6254  155.0803 N.ar    1  UNL1       -0.2283
     12 C         139.9732  149.0470  153.2011 C.1     1  UNL1        0.1020
     13 N         140.0034  150.1244  152.1578 N.1     1  UNL1       -0.1908
     14 C         139.7452  142.6478  159.5264 C.3     1  UNL1        0.1951
     15 O         138.4818  143.1620  160.1504 O.3     1  UNL1       -0.3493
     16 C         138.2594  143.9543  162.6148 C.3     1  UNL1        0.0347
     17 C         138.1801  142.8627  161.5890 C.3     1  UNL1        0.1446
     18 C         137.7993  141.4719  162.0019 C.3     1  UNL1        0.1666
     19 O         136.6790  141.2591  162.9764 O.3     1  UNL1       -0.3795
     20 H         136.9287  141.6223  163.8404 H       1  UNL1        0.2105
     21 O         142.1088  143.3632  160.3336 O.3     1  UNL1       -0.4517
     22 C         141.9172  143.4904  161.8160 C.ar    1  UNL1        0.2312
     23 N         141.9559  144.8427  162.4638 N.ar    1  UNL1       -0.1892
     24 C         141.7643  144.9699  163.9461 C.ar    1  UNL1        0.2029
     25 N         141.5341  143.7448  164.7804 N.ar    1  UNL1       -0.2045
     26 C         141.4954  142.3925  164.1326 C.ar    1  UNL1        0.1732
     27 C         141.6870  142.2653  162.6503 C.ar    1  UNL1        0.1099
     28 C         141.5985  140.8107  162.2946 C.ar    1  UNL1        0.1283
     29 N         141.3523  140.0390  163.5570 N.ar    1  UNL1       -0.1606
     30 N         141.2886  141.0166  164.6930 N.ar    1  UNL1       -0.1936
     31 C         141.0584  140.6778  166.1359 C.ar    1  UNL1        0.1759
     32 N         142.1994  140.7245  167.1086 N.ar    1  UNL1       -0.2242
     33 C         141.9692  140.3857  168.5515 C.ar    1  UNL1        0.1006
     34 C         140.5980  140.0001  169.0220 C.ar    1  UNL1        0.0217
     35 C         139.4571  139.9533  168.0493 C.ar    1  UNL1        0.0161
     36 C         139.6873  140.2922  166.6063 C.ar    1  UNL1        0.0935
     37 CL        138.5463  140.2454  165.6338 Cl      1  UNL1       -0.0790
@<TRIPOS>BOND
     1    17    16    1
     2    17    18    1
     3    18    19    1
     4    17    15    1
     5    15    14    1
     6     1    14    1
     7     1    21    1
     8    21    22    1
     9    22    23   ar
    10    23    24   ar
    11    24    25   ar
    12    25    26   ar
    13    26    27   ar
    14    27    28   ar
    15    28    29   ar
    16    29    30   ar
    17    30    31    1
    18    31    32   ar
    19    32    33   ar
    20    33    34   ar
    21    34    35   ar
    22    35    36   ar
    23    36    37    1
    24     1     2    1
    25     2     3    2
    26     2     4   am
    27     4     6    1
    28     6     7   ar
    29     7     8   ar
    30     8     9   ar
    31     9    12    1
    32    12    13    3
    33     9    10   ar
    34    10    11   ar
    35    27    22   ar
    36    36    31   ar
    37    11     6   ar
    38    30    26   ar
    39    19    20    1
    40     4     5    1
@<TRIPOS>MOLECULE
*****
 37 40 0 0 0
SMALL
GASTEIGER

@<TRIPOS>ATOM
      1 C         143.9102  143.4440  162.5461 C.3     1  UNL1        0.2722
      2 C         143.5707  143.3675  164.0053 C.2     1  UNL1        0.2701
      3 O         144.3631  144.1600  165.0022 O.2     1  UNL1       -0.2707
      4 N         142.4388  142.4985  164.4673 N.am    1  UNL1       -0.2663
      5 H         141.9187  141.9783  163.8129 H       1  UNL1        0.1564
      6 C         142.0992  142.4219  165.9263 C.ar    1  UNL1        0.1343
      7 C         140.7615  142.8969  166.4110 C.ar    1  UNL1        0.0352
      8 C         140.4220  142.8203  167.8700 C.ar    1  UNL1        0.0147
      9 C         141.4202  142.2688  168.8445 C.ar    1  UNL1        0.0877
     10 C         142.7579  141.7938  168.3598 C.ar    1  UNL1        0.1105
     11 N         143.0974  141.8704  166.9007 N.ar    1  UNL1       -0.2283
     12 C         141.0806  142.1922  170.3035 C.1     1  UNL1        0.1020
     13 N         140.7411  142.1157  171.7626 N.1     1  UNL1       -0.1908
     14 C         144.9814  142.5610  161.9781 C.3     1  UNL1        0.1951
     15 O         145.5761  141.4688  162.8167 O.3     1  UNL1       -0.3493
     16 C         144.1033  139.5285  161.9133 C.3     1  UNL1        0.0347
     17 C         144.8080  140.2022  163.0532 C.3     1  UNL1        0.1446
     18 C         144.7447  139.6094  164.4296 C.3     1  UNL1        0.1666
     19 O         143.4192  139.4296  165.1084 O.3     1  UNL1       -0.3795
     20 H         143.0273  140.2985  165.2878 H       1  UNL1        0.2105
     21 O         143.1785  144.4036  161.6552 O.3     1  UNL1       -0.4517
     22 C         141.7474  144.1439  161.2881 C.ar    1  UNL1        0.2312
     23 N         140.6689  144.2978  162.3192 N.ar    1  UNL1       -0.1892
     24 C         139.2379  144.0381  161.9521 C.ar    1  UNL1        0.2029
     25 N         138.8854  143.6245  160.5540 N.ar    1  UNL1       -0.2045
     26 C         139.9639  143.4705  159.5230 C.ar    1  UNL1        0.1732
     27 C         141.3949  143.7302  159.8901 C.ar    1  UNL1        0.1099
     28 C         142.2359  143.4988  158.6697 C.ar    1  UNL1        0.1283
     29 N         141.3246  143.0961  157.5484 N.ar    1  UNL1       -0.1606
     30 N         139.9205  143.0786  158.0758 N.ar    1  UNL1       -0.1936
     31 C         138.6890  142.7303  157.2933 C.ar    1  UNL1        0.1759
     32 N         138.1534  143.6891  156.2717 N.ar    1  UNL1       -0.2242
     33 C         136.9220  143.3408  155.4892 C.ar    1  UNL1        0.1006
     34 C         136.2261  142.0337  155.7284 C.ar    1  UNL1        0.0217
     35 C         136.7617  141.0749  156.7500 C.ar    1  UNL1        0.0161
     36 C         137.9931  141.4232  157.5325 C.ar    1  UNL1        0.0935
     37 CL        138.5287  140.4643  158.5541 Cl      1  UNL1       -0.0790
@<TRIPOS>BOND
     1    17    16    1
     2    17    18    1
     3    18    19    1
     4    17    15    1
     5    15    14    1
     6     1    14    1
     7     1    21    1
     8    21    22    1
     9    22    23   ar
    10    23    24   ar
    11    24    25   ar
    12    25    26   ar
    13    26    27   ar
    14    27    28   ar
    15    28    29   ar
    16    29    30   ar
    17    30    31    1
    18    31    32   ar
    19    32    33   ar
    20    33    34   ar
    21    34    35   ar
    22    35    36   ar
    23    36    37    1
    24     1     2    1
    25     2     3    2
    26     2     4   am
    27     4     6    1
    28     6     7   ar
    29     7     8   ar
    30     8     9   ar
    31     9    12    1
    32    12    13    3
    33     9    10   ar
    34    10    11   ar
    35    27    22   ar
    36    36    31   ar
    37    11     6   ar
    38    30    26   ar
    39    19    20    1
    40     4     5    1
@<TRIPOS>MOLECULE
*****
 37 40 0 0 0
SMALL
GASTEIGER

@<TRIPOS>ATOM
      1 C         141.5088  144.1449  161.7877 C.3     1  UNL1        0.2722
      2 C         141.5866  144.0612  163.2834 C.2     1  UNL1        0.2701
      3 O         141.7777  145.3078  164.0954 O.2     1  UNL1       -0.2707
      4 N         141.4733  142.7309  163.9670 N.am    1  UNL1       -0.2663
      5 H         141.3479  141.9127  163.4340 H       1  UNL1        0.1564
      6 C         141.5510  142.6471  165.4626 C.ar    1  UNL1        0.1343
      7 C         140.3327  142.9212  166.2935 C.ar    1  UNL1        0.0352
      8 C         140.4104  142.8375  167.7891 C.ar    1  UNL1        0.0147
      9 C         141.7066  142.4795  168.4539 C.ar    1  UNL1        0.0877
     10 C         142.9250  142.2054  167.6230 C.ar    1  UNL1        0.1105
     11 N         142.8472  142.2892  166.1273 N.ar    1  UNL1       -0.2283
     12 C         141.7844  142.3958  169.9495 C.1     1  UNL1        0.1020
     13 N         141.8621  142.3120  171.4452 N.1     1  UNL1       -0.1908
     14 C         140.2269  144.5543  161.1251 C.3     1  UNL1        0.1951
     15 O         139.1231  143.5547  160.9454 O.3     1  UNL1       -0.3493
     16 C         137.8280  144.1834  163.1082 C.3     1  UNL1        0.0347
     17 C         138.2786  143.1510  162.1176 C.3     1  UNL1        0.1446
     18 C         137.8848  141.7151  162.2992 C.3     1  UNL1        0.1666
     19 O         136.6304  141.3702  163.0458 O.3     1  UNL1       -0.3795
     20 H         136.7251  141.6313  163.9752 H       1  UNL1        0.2105
     21 O         142.7130  143.8193  160.9547 O.3     1  UNL1       -0.4517
     22 C         143.0659  142.3887  160.6736 C.ar    1  UNL1        0.2312
     23 N         143.7284  141.5577  161.7320 N.ar    1  UNL1       -0.1892
     24 C         144.0813  140.1272  161.4508 C.ar    1  UNL1        0.2029
     25 N         143.7716  139.5277  160.1111 N.ar    1  UNL1       -0.2045
     26 C         143.1090  140.3588  159.0527 C.ar    1  UNL1        0.1732
     27 C         142.7562  141.7893  159.3339 C.ar    1  UNL1        0.1099
     28 C         142.1133  142.3585  158.1039 C.ar    1  UNL1        0.1283
     29 N         142.0688  141.2798  157.0626 N.ar    1  UNL1       -0.1606
     30 N         142.6842  140.0439  157.6490 N.ar    1  UNL1       -0.1936
     31 C         142.8463  138.7247  156.9537 C.ar    1  UNL1        0.1759
     32 N         144.1023  138.4294  156.1887 N.ar    1  UNL1       -0.2242
     33 C         144.2644  137.1102  155.4934 C.ar    1  UNL1        0.1006
     34 C         143.1705  136.0862  155.5631 C.ar    1  UNL1        0.0217
     35 C         141.9146  136.3815  156.3282 C.ar    1  UNL1        0.0161
     36 C         141.7525  137.7007  157.0234 C.ar    1  UNL1        0.0935
     37 CL        140.4964  137.9959  157.7885 Cl      1  UNL1       -0.0790
@<TRIPOS>BOND
     1    17    16    1
     2    17    18    1
     3    18    19    1
     4    17    15    1
     5    15    14    1
     6     1    14    1
     7     1    21    1
     8    21    22    1
     9    22    23   ar
    10    23    24   ar
    11    24    25   ar
    12    25    26   ar
    13    26    27   ar
    14    27    28   ar
    15    28    29   ar
    16    29    30   ar
    17    30    31    1
    18    31    32   ar
    19    32    33   ar
    20    33    34   ar
    21    34    35   ar
    22    35    36   ar
    23    36    37    1
    24     1     2    1
    25     2     3    2
    26     2     4   am
    27     4     6    1
    28     6     7   ar
    29     7     8   ar
    30     8     9   ar
    31     9    12    1
    32    12    13    3
    33     9    10   ar
    34    10    11   ar
    35    27    22   ar
    36    36    31   ar
    37    11     6   ar
    38    30    26   ar
    39    19    20    1
    40     4     5    1
@<TRIPOS>MOLECULE
*****
 37 40 0 0 0
SMALL
GASTEIGER

@<TRIPOS>ATOM
      1 C         138.1408  142.8113  163.2218 C.3     1  UNL1        0.2722
      2 C         138.9325  142.4859  164.4537 C.2     1  UNL1        0.2701
      3 O         139.1803  143.5443  165.4873 O.2     1  UNL1       -0.2707
      4 N         139.4763  141.1020  164.6520 N.am    1  UNL1       -0.2663
      5 H         139.3136  140.4074  163.9736 H       1  UNL1        0.1564
      6 C         140.2679  140.7766  165.8838 C.ar    1  UNL1        0.1343
      7 C         139.5612  140.3889  167.1488 C.ar    1  UNL1        0.0352
      8 C         140.3528  140.0634  168.3806 C.ar    1  UNL1        0.0147
      9 C         141.8512  140.1258  168.3475 C.ar    1  UNL1        0.0877
     10 C         142.5579  140.5136  167.0825 C.ar    1  UNL1        0.1105
     11 N         141.7662  140.8390  165.8506 N.ar    1  UNL1       -0.2283
     12 C         142.6428  139.8004  169.5793 C.1     1  UNL1        0.1020
     13 N         143.4345  139.4750  170.8111 N.1     1  UNL1       -0.1908
     14 C         138.2336  144.1776  162.6098 C.3     1  UNL1        0.1951
     15 O         138.9420  144.3667  161.3013 O.3     1  UNL1       -0.3493
     16 C         141.1716  144.1816  159.9804 C.3     1  UNL1        0.0347
     17 C         140.4397  144.4428  161.2633 C.3     1  UNL1        0.1446
     18 C         141.2053  144.7801  162.5083 C.3     1  UNL1        0.1666
     19 O         141.1188  146.1595  163.0913 O.3     1  UNL1       -0.3795
     20 H         141.5185  146.7955  162.4776 H       1  UNL1        0.2105
     21 O         137.2564  141.7703  162.6019 O.3     1  UNL1       -0.4517
     22 C         137.8543  140.5094  162.0516 C.ar    1  UNL1        0.2312
     23 N         137.9566  139.2882  162.9165 N.ar    1  UNL1       -0.1892
     24 C         138.5544  138.0273  162.3662 C.ar    1  UNL1        0.2029
     25 N         139.0499  137.9877  160.9509 N.ar    1  UNL1       -0.2045
     26 C         138.9475  139.2090  160.0860 C.ar    1  UNL1        0.1732
     27 C         138.3497  140.4698  160.6364 C.ar    1  UNL1        0.1099
     28 C         138.3808  141.5083  159.5544 C.ar    1  UNL1        0.1283
     29 N         138.9979  140.8893  158.3354 N.ar    1  UNL1       -0.1606
     30 N         139.3481  139.4682  158.6639 N.ar    1  UNL1       -0.1936
     31 C         139.9868  138.4799  157.7337 C.ar    1  UNL1        0.1759
     32 N         139.1845  137.8673  156.6242 N.ar    1  UNL1       -0.2242
     33 C         139.8232  136.8790  155.6940 C.ar    1  UNL1        0.1006
     34 C         141.2643  136.5032  155.8733 C.ar    1  UNL1        0.0217
     35 C         142.0665  137.1157  156.9829 C.ar    1  UNL1        0.0161
     36 C         141.4278  138.1040  157.9131 C.ar    1  UNL1        0.0935
     37 CL        142.2302  138.7165  159.0226 Cl      1  UNL1       -0.0790
@<TRIPOS>BOND
     1    17    16    1
     2    17    18    1
     3    18    19    1
     4    17    15    1
     5    15    14    1
     6     1    14    1
     7     1    21    1
     8    21    22    1
     9    22    23   ar
    10    23    24   ar
    11    24    25   ar
    12    25    26   ar
    13    26    27   ar
    14    27    28   ar
    15    28    29   ar
    16    29    30   ar
    17    30    31    1
    18    31    32   ar
    19    32    33   ar
    20    33    34   ar
    21    34    35   ar
    22    35    36   ar
    23    36    37    1
    24     1     2    1
    25     2     3    2
    26     2     4   am
    27     4     6    1
    28     6     7   ar
    29     7     8   ar
    30     8     9   ar
    31     9    12    1
    32    12    13    3
    33     9    10   ar
    34    10    11   ar
    35    27    22   ar
    36    36    31   ar
    37    11     6   ar
    38    30    26   ar
    39    19    20    1
    40     4     5    1
@<TRIPOS>MOLECULE
*****
 37 40 0 0 0
SMALL
GASTEIGER

@<TRIPOS>ATOM
      1 C         139.9477  144.3491  163.5571 C.3     1  UNL1        0.2722
      2 C         140.4823  143.2556  164.4337 C.2     1  UNL1        0.2701
      3 O         141.0932  142.0318  163.8180 O.2     1  UNL1       -0.2707
      4 N         140.4058  143.3858  165.9261 N.am    1  UNL1       -0.2663
      5 H         140.0048  144.1890  166.3303 H       1  UNL1        0.1564
      6 C         140.9403  142.2923  166.8027 C.ar    1  UNL1        0.1343
      7 C         142.4070  142.2271  167.1105 C.ar    1  UNL1        0.0352
      8 C         142.9415  141.1336  167.9871 C.ar    1  UNL1        0.0147
      9 C         142.0093  140.1052  168.5560 C.ar    1  UNL1        0.0877
     10 C         140.5427  140.1704  168.2483 C.ar    1  UNL1        0.1105
     11 N         140.0082  141.2640  167.3716 N.ar    1  UNL1       -0.2283
     12 C         142.5438  139.0117  169.4327 C.1     1  UNL1        0.1020
     13 N         143.0784  137.9182  170.3094 N.1     1  UNL1       -0.1908
     14 C         138.4711  144.6047  163.4929 C.3     1  UNL1        0.1951
     15 O         137.6442  143.9593  162.4206 O.3     1  UNL1       -0.3493
     16 C         137.3913  141.4382  162.9951 C.3     1  UNL1        0.0347
     17 C         137.8654  142.5181  162.0683 C.3     1  UNL1        0.1446
     18 C         138.5606  142.1569  160.7892 C.3     1  UNL1        0.1666
     19 O         138.2220  142.8826  159.5208 O.3     1  UNL1       -0.3795
     20 H         137.3063  142.6843  159.2695 H       1  UNL1        0.2105
     21 O         140.8899  145.1872  162.7447 O.3     1  UNL1       -0.4517
     22 C         141.1894  144.8146  161.3229 C.ar    1  UNL1        0.2312
     23 N         140.3008  145.3014  160.2169 N.ar    1  UNL1       -0.1892
     24 C         140.6003  144.9288  158.7951 C.ar    1  UNL1        0.2029
     25 N         141.7884  144.0693  158.4794 N.ar    1  UNL1       -0.2045
     26 C         142.6770  143.5825  159.5854 C.ar    1  UNL1        0.1732
     27 C         142.3775  143.9551  161.0071 C.ar    1  UNL1        0.1099
     28 C         143.4253  143.3310  161.8805 C.ar    1  UNL1        0.1283
     29 N         144.3723  142.5727  160.9984 N.ar    1  UNL1       -0.1606
     30 N         143.9099  142.7281  159.5800 N.ar    1  UNL1       -0.1936
     31 C         144.5652  142.1335  158.3688 C.ar    1  UNL1        0.1759
     32 N         145.8304  142.7328  157.8303 N.ar    1  UNL1       -0.2242
     33 C         146.4857  142.1382  156.6191 C.ar    1  UNL1        0.1006
     34 C         145.8758  140.9443  155.9463 C.ar    1  UNL1        0.0217
     35 C         144.6106  140.3450  156.4849 C.ar    1  UNL1        0.0161
     36 C         143.9553  140.9396  157.6961 C.ar    1  UNL1        0.0935
     37 CL        142.6901  140.3402  158.2345 Cl      1  UNL1       -0.0790
@<TRIPOS>BOND
     1    17    16    1
     2    17    18    1
     3    18    19    1
     4    17    15    1
     5    15    14    1
     6     1    14    1
     7     1    21    1
     8    21    22    1
     9    22    23   ar
    10    23    24   ar
    11    24    25   ar
    12    25    26   ar
    13    26    27   ar
    14    27    28   ar
    15    28    29   ar
    16    29    30   ar
    17    30    31    1
    18    31    32   ar
    19    32    33   ar
    20    33    34   ar
    21    34    35   ar
    22    35    36   ar
    23    36    37    1
    24     1     2    1
    25     2     3    2
    26     2     4   am
    27     4     6    1
    28     6     7   ar
    29     7     8   ar
    30     8     9   ar
    31     9    12    1
    32    12    13    3
    33     9    10   ar
    34    10    11   ar
    35    27    22   ar
    36    36    31   ar
    37    11     6   ar
    38    30    26   ar
    39    19    20    1
    40     4     5    1
@<TRIPOS>MOLECULE
*****
 37 40 0 0 0
SMALL
GASTEIGER

@<TRIPOS>ATOM
      1 C         143.7770  143.1873  163.4904 C.3     1  UNL1        0.2722
      2 C         142.7640  142.4327  164.2994 C.2     1  UNL1        0.2701
      3 O         142.7112  142.6087  165.7881 O.2     1  UNL1       -0.2707
      4 N         141.8037  141.5022  163.6197 N.am    1  UNL1       -0.2663
      5 H         141.8384  141.3867  162.6426 H       1  UNL1        0.1564
      6 C         140.7907  140.7477  164.4286 C.ar    1  UNL1        0.1343
      7 C         141.1393  139.4079  165.0062 C.ar    1  UNL1        0.0352
      8 C         140.1263  138.6534  165.8152 C.ar    1  UNL1        0.0147
      9 C         138.7646  139.2386  166.0466 C.ar    1  UNL1        0.0877
     10 C         138.4160  140.5783  165.4690 C.ar    1  UNL1        0.1105
     11 N         139.4291  141.3329  164.6600 N.ar    1  UNL1       -0.2283
     12 C         137.7516  138.4840  166.8555 C.1     1  UNL1        0.1020
     13 N         136.7386  137.7294  167.6645 N.1     1  UNL1       -0.1908
     14 C         145.1068  142.5646  163.1841 C.3     1  UNL1        0.1951
     15 O         145.1965  141.4301  162.2069 O.3     1  UNL1       -0.3493
     16 C         144.9729  139.5576  163.9941 C.3     1  UNL1        0.0347
     17 C         144.7286  140.0609  162.6024 C.3     1  UNL1        0.1446
     18 C         144.0162  139.1950  161.6060 C.3     1  UNL1        0.1666
     19 O         144.3773  137.7446  161.4793 O.3     1  UNL1       -0.3795
     20 H         145.2842  137.6653  161.1443 H       1  UNL1        0.2105
     21 O         143.4602  144.5646  162.9876 O.3     1  UNL1       -0.4517
     22 C         142.1742  144.8194  162.2586 C.ar    1  UNL1        0.2312
     23 N         141.1042  145.6560  162.8952 N.ar    1  UNL1       -0.1892
     24 C         139.8183  145.9108  162.1662 C.ar    1  UNL1        0.2029
     25 N         139.6024  145.3291  160.8005 N.ar    1  UNL1       -0.2045
     26 C         140.6724  144.4925  160.1639 C.ar    1  UNL1        0.1732
     27 C         141.9583  144.2377  160.8929 C.ar    1  UNL1        0.1099
     28 C         142.8247  143.3801  160.0188 C.ar    1  UNL1        0.1283
     29 N         142.0742  143.1050  158.7495 N.ar    1  UNL1       -0.1606
     30 N         140.7440  143.7925  158.8392 N.ar    1  UNL1       -0.1936
     31 C         139.6734  143.7818  157.7887 C.ar    1  UNL1        0.1759
     32 N         138.5827  142.7534  157.8397 N.ar    1  UNL1       -0.2242
     33 C         137.5121  142.7427  156.7892 C.ar    1  UNL1        0.1006
     34 C         137.5321  143.7606  155.6875 C.ar    1  UNL1        0.0217
     35 C         138.6228  144.7890  155.6365 C.ar    1  UNL1        0.0161
     36 C         139.6934  144.7997  156.6870 C.ar    1  UNL1        0.0935
     37 CL        140.7841  145.8282  156.6359 Cl      1  UNL1       -0.0790
@<TRIPOS>BOND
     1    17    16    1
     2    17    18    1
     3    18    19    1
     4    17    15    1
     5    15    14    1
     6     1    14    1
     7     1    21    1
     8    21    22    1
     9    22    23   ar
    10    23    24   ar
    11    24    25   ar
    12    25    26   ar
    13    26    27   ar
    14    27    28   ar
    15    28    29   ar
    16    29    30   ar
    17    30    31    1
    18    31    32   ar
    19    32    33   ar
    20    33    34   ar
    21    34    35   ar
    22    35    36   ar
    23    36    37    1
    24     1     2    1
    25     2     3    2
    26     2     4   am
    27     4     6    1
    28     6     7   ar
    29     7     8   ar
    30     8     9   ar
    31     9    12    1
    32    12    13    3
    33     9    10   ar
    34    10    11   ar
    35    27    22   ar
    36    36    31   ar
    37    11     6   ar
    38    30    26   ar
    39    19    20    1
    40     4     5    1
