@<TRIPOS>MOLECULE
*****
 28 31 0 0 0
SMALL
GASTEIGER

@<TRIPOS>ATOM
      1 C         143.2587  143.1216  165.0036 C.ar    1  UNL1        0.1387
      2 C         143.9598  144.3314  164.4607 C.ar    1  UNL1        0.0382
      3 C         143.5942  144.8660  163.1077 C.ar    1  UNL1        0.0178
      4 C         142.5275  144.1908  162.2977 C.ar    1  UNL1        0.0500
      5 C         141.8264  142.9810  162.8406 C.ar    1  UNL1        0.0337
      6 C         142.1920  142.4464  164.1936 C.ar    1  UNL1        0.0396
      7 C         140.7427  142.1632  162.2028 C.2     1  UNL1        0.0784
      8 N         140.0925  142.3533  160.8644 N.2     1  UNL1       -0.2444
      9 C         140.3654  143.4081  159.8335 C.ar    1  UNL1        0.0954
     10 C         139.4883  143.2367  158.6287 C.ar    1  UNL1        0.0317
     11 C         139.6018  144.1905  157.4766 C.ar    1  UNL1        0.0593
     12 CL        138.7248  144.0192  156.2719 Cl      1  UNL1       -0.0822
     13 C         140.5923  145.3158  157.5293 C.ar    1  UNL1        0.0128
     14 C         141.4693  145.4872  158.7340 C.ar    1  UNL1        0.0170
     15 C         141.3559  144.5333  159.8861 C.ar    1  UNL1        0.0662
     16 N         142.3181  144.8817  160.9829 N.pl3   1  UNL1       -0.3113
     17 H         142.8876  145.6677  160.8179 H       1  UNL1        0.1523
     18 C         140.2432  141.0018  163.0099 C.2     1  UNL1       -0.0061
     19 C         140.9309  139.6721  162.9159 C.2     1  UNL1       -0.0132
     20 C         140.4314  138.5106  163.7230 C.3     1  UNL1        0.0796
     21 C         141.1192  137.1808  163.6290 C.3     1  UNL1        0.0222
     22 N         139.2441  138.6788  164.6242 N.3     1  UNL1       -0.2688
     23 C         138.7446  137.5174  165.4313 C.3     1  UNL1        0.0899
     24 C         138.5564  140.0085  164.7183 C.3     1  UNL1        0.0771
     25 C         139.0559  141.1700  163.9111 C.3     1  UNL1        0.0449
     26 O         143.6243  142.5870  166.3566 O.3     1  UNL1       -0.4755
     27 C         142.8194  142.2038  168.7969 C.3     1  UNL1        0.0512
     28 C         142.5474  142.1890  167.3219 C.3     1  UNL1        0.2055
@<TRIPOS>BOND
     1    27    28    1
     2    28    26    1
     3    26     1    1
     4     1     2   ar
     5     2     3   ar
     6     3     4   ar
     7     4     5   ar
     8     5     6   ar
     9     5     7    1
    10     7    18    1
    11    18    19    2
    12    19    20    1
    13    20    21    1
    14    20    22    1
    15    22    23    1
    16    22    24    1
    17    24    25    1
    18     7     8    2
    19     8     9    1
    20     9    10   ar
    21    10    11   ar
    22    11    12    1
    23    11    13   ar
    24    13    14   ar
    25    14    15   ar
    26    15    16    1
    27     6     1   ar
    28    25    18    1
    29    15     9   ar
    30    16     4    1
    31    16    17    1
@<TRIPOS>MOLECULE
*****
 28 31 0 0 0
SMALL
GASTEIGER

@<TRIPOS>ATOM
      1 C         139.2436  138.3905  162.1768 C.ar    1  UNL1        0.1387
      2 C         138.8566  137.4142  163.2478 C.ar    1  UNL1        0.0382
      3 C         138.9164  137.8208  164.6904 C.ar    1  UNL1        0.0178
      4 C         139.3631  139.2036  165.0621 C.ar    1  UNL1        0.0500
      5 C         139.7502  140.1799  163.9911 C.ar    1  UNL1        0.0337
      6 C         139.6904  139.7733  162.5484 C.ar    1  UNL1        0.0396
      7 C         140.2201  141.5963  164.1422 C.2     1  UNL1        0.0784
      8 N         140.4192  142.3863  165.4018 N.2     1  UNL1       -0.2444
      9 C         140.1973  141.9549  166.8211 C.ar    1  UNL1        0.0954
     10 C         140.5179  143.0581  167.7857 C.ar    1  UNL1        0.0317
     11 C         140.3629  142.8334  169.2606 C.ar    1  UNL1        0.0593
     12 CL        140.6834  143.9365  170.2251 Cl      1  UNL1       -0.0822
     13 C         139.8873  141.5055  169.7710 C.ar    1  UNL1        0.0128
     14 C         139.5667  140.4024  168.8066 C.ar    1  UNL1        0.0170
     15 C         139.7217  140.6270  167.3316 C.ar    1  UNL1        0.0662
     16 N         139.3505  139.4025  166.5487 N.pl3   1  UNL1       -0.3113
     17 H         139.0601  138.6269  167.0810 H       1  UNL1        0.1523
     18 C         140.5324  142.3183  162.8651 C.2     1  UNL1       -0.0061
     19 C         141.9071  142.2312  162.2712 C.2     1  UNL1       -0.0132
     20 C         142.2195  142.9532  160.9940 C.3     1  UNL1        0.0796
     21 C         143.5941  142.8661  160.4001 C.3     1  UNL1        0.0222
     22 N         141.1571  143.7622  160.3106 N.3     1  UNL1       -0.2688
     23 C         141.4694  144.4842  159.0335 C.3     1  UNL1        0.0899
     24 C         139.7824  143.8493  160.9045 C.3     1  UNL1        0.0771
     25 C         139.4701  143.1273  162.1817 C.3     1  UNL1        0.0449
     26 O         139.1839  137.9840  160.7342 O.3     1  UNL1       -0.4755
     27 C         138.6289  139.8898  159.0579 C.3     1  UNL1        0.0512
     28 C         139.6202  138.9425  159.6662 C.3     1  UNL1        0.2055
@<TRIPOS>BOND
     1    27    28    1
     2    28    26    1
     3    26     1    1
     4     1     2   ar
     5     2     3   ar
     6     3     4   ar
     7     4     5   ar
     8     5     6   ar
     9     5     7    1
    10     7    18    1
    11    18    19    2
    12    19    20    1
    13    20    21    1
    14    20    22    1
    15    22    23    1
    16    22    24    1
    17    24    25    1
    18     7     8    2
    19     8     9    1
    20     9    10   ar
    21    10    11   ar
    22    11    12    1
    23    11    13   ar
    24    13    14   ar
    25    14    15   ar
    26    15    16    1
    27     6     1   ar
    28    25    18    1
    29    15     9   ar
    30    16     4    1
    31    16    17    1
@<TRIPOS>MOLECULE
*****
 28 31 0 0 0
SMALL
GASTEIGER

@<TRIPOS>ATOM
      1 C         142.8229  143.9890  162.0702 C.ar    1  UNL1        0.1387
      2 C         143.8959  144.6055  162.9179 C.ar    1  UNL1        0.0382
      3 C         144.0368  144.2063  164.3570 C.ar    1  UNL1        0.0178
      4 C         143.1047  143.1907  164.9483 C.ar    1  UNL1        0.0500
      5 C         142.0317  142.5743  164.1006 C.ar    1  UNL1        0.0337
      6 C         141.8908  142.9734  162.6616 C.ar    1  UNL1        0.0396
      7 C         141.0055  141.5513  164.4885 C.2     1  UNL1        0.0784
      8 N         140.7989  140.8921  165.8201 N.2     1  UNL1       -0.2444
      9 C         141.5674  141.0932  167.0924 C.ar    1  UNL1        0.0954
     10 C         141.0317  140.2326  168.1980 C.ar    1  UNL1        0.0317
     11 C         141.6609  140.2818  169.5587 C.ar    1  UNL1        0.0593
     12 CL        141.1252  139.4212  170.6644 Cl      1  UNL1       -0.0822
     13 C         142.8259  141.1916  169.8139 C.ar    1  UNL1        0.0128
     14 C         143.3616  142.0522  168.7083 C.ar    1  UNL1        0.0170
     15 C         142.7324  142.0030  167.3475 C.ar    1  UNL1        0.0662
     16 N         143.4166  142.9365  166.3933 N.pl3   1  UNL1       -0.3113
     17 H         144.1699  143.4503  166.7645 H       1  UNL1        0.1523
     18 C         140.0611  141.1321  163.4013 C.2     1  UNL1       -0.0061
     19 C         140.3951  139.9583  162.5291 C.2     1  UNL1       -0.0132
     20 C         139.4506  139.5389  161.4418 C.3     1  UNL1        0.0796
     21 C         139.7847  138.3651  160.5697 C.3     1  UNL1        0.0222
     22 N         138.1721  140.2934  161.2267 N.3     1  UNL1       -0.2688
     23 C         137.2276  139.8741  160.1394 C.3     1  UNL1        0.0899
     24 C         137.8381  141.4672  162.0988 C.3     1  UNL1        0.0771
     25 C         138.7825  141.8865  163.1861 C.3     1  UNL1        0.0449
     26 O         142.6820  144.3882  160.6312 O.3     1  UNL1       -0.4755
     27 C         140.3755  145.5799  160.7283 C.3     1  UNL1        0.0512
     28 C         141.3208  144.6329  160.0506 C.3     1  UNL1        0.2055
@<TRIPOS>BOND
     1    27    28    1
     2    28    26    1
     3    26     1    1
     4     1     2   ar
     5     2     3   ar
     6     3     4   ar
     7     4     5   ar
     8     5     6   ar
     9     5     7    1
    10     7    18    1
    11    18    19    2
    12    19    20    1
    13    20    21    1
    14    20    22    1
    15    22    23    1
    16    22    24    1
    17    24    25    1
    18     7     8    2
    19     8     9    1
    20     9    10   ar
    21    10    11   ar
    22    11    12    1
    23    11    13   ar
    24    13    14   ar
    25    14    15   ar
    26    15    16    1
    27     6     1   ar
    28    25    18    1
    29    15     9   ar
    30    16     4    1
    31    16    17    1
@<TRIPOS>MOLECULE
*****
 28 31 0 0 0
SMALL
GASTEIGER

@<TRIPOS>ATOM
      1 C         138.5638  139.3643  163.0883 C.ar    1  UNL1        0.1387
      2 C         138.5079  138.2148  164.0502 C.ar    1  UNL1        0.0382
      3 C         139.2741  138.2767  165.3382 C.ar    1  UNL1        0.0178
      4 C         140.0963  139.4881  165.6643 C.ar    1  UNL1        0.0500
      5 C         140.1522  140.6377  164.7024 C.ar    1  UNL1        0.0337
      6 C         139.3860  140.5758  163.4144 C.ar    1  UNL1        0.0396
      7 C         140.9041  141.9292  164.8313 C.2     1  UNL1        0.0784
      8 N         141.7857  142.3902  165.9539 N.2     1  UNL1       -0.2444
      9 C         142.1332  141.6734  167.2249 C.ar    1  UNL1        0.0954
     10 C         143.0519  142.4925  168.0823 C.ar    1  UNL1        0.0317
     11 C         143.5223  141.9568  169.4020 C.ar    1  UNL1        0.0593
     12 CL        144.4410  142.7757  170.2595 Cl      1  UNL1       -0.0822
     13 C         143.0740  140.6021  169.8644 C.ar    1  UNL1        0.0128
     14 C         142.1553  139.7830  169.0070 C.ar    1  UNL1        0.0170
     15 C         141.6849  140.3187  167.6872 C.ar    1  UNL1        0.0662
     16 N         140.7784  139.3461  166.9927 N.pl3   1  UNL1       -0.3113
     17 H         140.6086  138.5031  167.4721 H       1  UNL1        0.1523
     18 C         140.7546  142.8864  163.6861 C.2     1  UNL1       -0.0061
     19 C         141.6489  142.7676  162.4878 C.2     1  UNL1       -0.0132
     20 C         141.4995  143.7248  161.3425 C.3     1  UNL1        0.0796
     21 C         142.3938  143.6060  160.1442 C.3     1  UNL1        0.0222
     22 N         140.4557  144.8008  161.3957 N.3     1  UNL1       -0.2688
     23 C         140.3062  145.7580  160.2505 C.3     1  UNL1        0.0899
     24 C         139.5613  144.9196  162.5940 C.3     1  UNL1        0.0771
     25 C         139.7108  143.9624  163.7393 C.3     1  UNL1        0.0449
     26 O         137.7975  139.3024  161.8002 O.3     1  UNL1       -0.4755
     27 C         139.7929  138.4072  160.3977 C.3     1  UNL1        0.0512
     28 C         138.5309  139.2122  160.4949 C.3     1  UNL1        0.2055
@<TRIPOS>BOND
     1    27    28    1
     2    28    26    1
     3    26     1    1
     4     1     2   ar
     5     2     3   ar
     6     3     4   ar
     7     4     5   ar
     8     5     6   ar
     9     5     7    1
    10     7    18    1
    11    18    19    2
    12    19    20    1
    13    20    21    1
    14    20    22    1
    15    22    23    1
    16    22    24    1
    17    24    25    1
    18     7     8    2
    19     8     9    1
    20     9    10   ar
    21    10    11   ar
    22    11    12    1
    23    11    13   ar
    24    13    14   ar
    25    14    15   ar
    26    15    16    1
    27     6     1   ar
    28    25    18    1
    29    15     9   ar
    30    16     4    1
    31    16    17    1
@<TRIPOS>MOLECULE
*****
 28 31 0 0 0
SMALL
GASTEIGER

@<TRIPOS>ATOM
      1 C         138.4514  143.1255  162.0593 C.ar    1  UNL1        0.1387
      2 C         137.8299  144.0939  163.0215 C.ar    1  UNL1        0.0382
      3 C         138.2739  144.1172  164.4541 C.ar    1  UNL1        0.0178
      4 C         139.3395  143.1722  164.9245 C.ar    1  UNL1        0.0500
      5 C         139.9610  142.2038  163.9623 C.ar    1  UNL1        0.0337
      6 C         139.5170  142.1804  162.5297 C.ar    1  UNL1        0.0396
      7 C         141.0300  141.1839  164.2214 C.2     1  UNL1        0.0784
      8 N         141.7415  140.8805  165.5067 N.2     1  UNL1       -0.2444
      9 C         141.5596  141.5221  166.8502 C.ar    1  UNL1        0.0954
     10 C         142.4752  140.9191  167.8740 C.ar    1  UNL1        0.0317
     11 C         142.4526  141.4194  169.2878 C.ar    1  UNL1        0.0593
     12 CL        143.3682  140.8164  170.3116 Cl      1  UNL1       -0.0822
     13 C         141.5144  142.5229  169.6780 C.ar    1  UNL1        0.0128
     14 C         140.5988  143.1259  168.6544 C.ar    1  UNL1        0.0170
     15 C         140.6214  142.6256  167.2404 C.ar    1  UNL1        0.0662
     16 N         139.6333  143.3599  166.3834 N.pl3   1  UNL1       -0.3113
     17 H         139.1083  144.0573  166.8386 H       1  UNL1        0.1523
     18 C         141.4421  140.3581  163.0389 C.2     1  UNL1       -0.0061
     19 C         142.3976  140.9200  162.0283 C.2     1  UNL1       -0.0132
     20 C         142.8097  140.0942  160.8457 C.3     1  UNL1        0.0796
     21 C         143.7652  140.6560  159.8351 C.3     1  UNL1        0.0222
     22 N         142.2664  138.7067  160.6738 N.3     1  UNL1       -0.2688
     23 C         142.6785  137.8809  159.4914 C.3     1  UNL1        0.0899
     24 C         141.3109  138.1448  161.6845 C.3     1  UNL1        0.0771
     25 C         140.8987  138.9706  162.8670 C.3     1  UNL1        0.0449
     26 O         138.0074  143.1021  160.6267 O.3     1  UNL1       -0.4755
     27 C         140.0501  144.0148  159.3059 C.3     1  UNL1        0.0512
     28 C         139.0194  142.9483  159.5303 C.3     1  UNL1        0.2055
@<TRIPOS>BOND
     1    27    28    1
     2    28    26    1
     3    26     1    1
     4     1     2   ar
     5     2     3   ar
     6     3     4   ar
     7     4     5   ar
     8     5     6   ar
     9     5     7    1
    10     7    18    1
    11    18    19    2
    12    19    20    1
    13    20    21    1
    14    20    22    1
    15    22    23    1
    16    22    24    1
    17    24    25    1
    18     7     8    2
    19     8     9    1
    20     9    10   ar
    21    10    11   ar
    22    11    12    1
    23    11    13   ar
    24    13    14   ar
    25    14    15   ar
    26    15    16    1
    27     6     1   ar
    28    25    18    1
    29    15     9   ar
    30    16     4    1
    31    16    17    1
@<TRIPOS>MOLECULE
*****
 28 31 0 0 0
SMALL
GASTEIGER

@<TRIPOS>ATOM
      1 C         143.3762  140.2739  162.3710 C.ar    1  UNL1        0.1387
      2 C         144.0100  139.0660  162.9946 C.ar    1  UNL1        0.0382
      3 C         143.8835  138.8302  164.4706 C.ar    1  UNL1        0.0178
      4 C         143.1231  139.8025  165.3229 C.ar    1  UNL1        0.0500
      5 C         142.4893  141.0105  164.6993 C.ar    1  UNL1        0.0337
      6 C         142.6158  141.2462  163.2234 C.ar    1  UNL1        0.0396
      7 C         141.6937  142.0961  165.3614 C.2     1  UNL1        0.0784
      8 N         141.3355  142.2419  166.8108 N.2     1  UNL1       -0.2444
      9 C         141.6845  141.3381  167.9558 C.ar    1  UNL1        0.0954
     10 C         141.1265  141.8524  169.2497 C.ar    1  UNL1        0.0317
     11 C         141.3617  141.0939  170.5222 C.ar    1  UNL1        0.0593
     12 CL        140.8038  141.6081  171.8161 Cl      1  UNL1       -0.0822
     13 C         142.1550  139.8210  170.5008 C.ar    1  UNL1        0.0128
     14 C         142.7130  139.3066  169.2070 C.ar    1  UNL1        0.0170
     15 C         142.4777  140.0652  167.9344 C.ar    1  UNL1        0.0662
     16 N         143.1180  139.3818  166.7627 N.pl3   1  UNL1       -0.3113
     17 H         143.5984  138.5467  166.9654 H       1  UNL1        0.1523
     18 C         141.1897  143.1792  164.4544 C.2     1  UNL1       -0.0061
     19 C         139.7423  143.2157  164.0621 C.2     1  UNL1       -0.0132
     20 C         139.2382  144.2988  163.1550 C.3     1  UNL1        0.0796
     21 C         137.7908  144.3353  162.7628 C.3     1  UNL1        0.0222
     22 N         140.1814  145.3455  162.6402 N.3     1  UNL1       -0.2688
     23 C         139.6773  146.4286  161.7332 C.3     1  UNL1        0.0899
     24 C         141.6287  145.3090  163.0325 C.3     1  UNL1        0.0771
     25 C         142.1329  144.2259  163.9396 C.3     1  UNL1        0.0449
     26 O         143.5027  140.5097  160.8951 O.3     1  UNL1       -0.4755
     27 C         142.5006  138.4412  159.6838 C.3     1  UNL1        0.0512
     28 C         143.6636  139.3471  159.9610 C.3     1  UNL1        0.2055
@<TRIPOS>BOND
     1    27    28    1
     2    28    26    1
     3    26     1    1
     4     1     2   ar
     5     2     3   ar
     6     3     4   ar
     7     4     5   ar
     8     5     6   ar
     9     5     7    1
    10     7    18    1
    11    18    19    2
    12    19    20    1
    13    20    21    1
    14    20    22    1
    15    22    23    1
    16    22    24    1
    17    24    25    1
    18     7     8    2
    19     8     9    1
    20     9    10   ar
    21    10    11   ar
    22    11    12    1
    23    11    13   ar
    24    13    14   ar
    25    14    15   ar
    26    15    16    1
    27     6     1   ar
    28    25    18    1
    29    15     9   ar
    30    16     4    1
    31    16    17    1
@<TRIPOS>MOLECULE
*****
 28 31 0 0 0
SMALL
GASTEIGER

@<TRIPOS>ATOM
      1 C         143.0946  143.8871  161.9092 C.ar    1  UNL1        0.1387
      2 C         143.8053  144.8119  162.8524 C.ar    1  UNL1        0.0382
      3 C         143.8991  144.4698  164.3098 C.ar    1  UNL1        0.0178
      4 C         143.2823  143.2029  164.8240 C.ar    1  UNL1        0.0500
      5 C         142.5717  142.2781  163.8808 C.ar    1  UNL1        0.0337
      6 C         142.4778  142.6202  162.4234 C.ar    1  UNL1        0.0396
      7 C         141.8925  140.9752  164.1828 C.2     1  UNL1        0.0784
      8 N         141.7563  140.2752  165.5025 N.2     1  UNL1       -0.2444
      9 C         142.2656  140.7054  166.8461 C.ar    1  UNL1        0.0954
     10 C         141.9114  139.7099  167.9108 C.ar    1  UNL1        0.0317
     11 C         142.3285  139.9506  169.3314 C.ar    1  UNL1        0.0593
     12 CL        141.9744  138.9552  170.3961 Cl      1  UNL1       -0.0822
     13 C         143.0999  141.1869  169.6873 C.ar    1  UNL1        0.0128
     14 C         143.4540  142.1824  168.6226 C.ar    1  UNL1        0.0170
     15 C         143.0369  141.9417  167.2020 C.ar    1  UNL1        0.0662
     16 N         143.4894  143.0532  166.3021 N.pl3   1  UNL1       -0.3113
     17 H         143.9883  143.7806  166.7394 H       1  UNL1        0.1523
     18 C         141.2668  140.2803  163.0099 C.2     1  UNL1       -0.0061
     19 C         139.8274  140.5309  162.6702 C.2     1  UNL1       -0.0132
     20 C         139.2016  139.8360  161.4974 C.3     1  UNL1        0.0796
     21 C         137.7622  140.0866  161.1577 C.3     1  UNL1        0.0222
     22 N         140.0152  138.8904  160.6642 N.3     1  UNL1       -0.2688
     23 C         139.3895  138.1955  159.4914 C.3     1  UNL1        0.0899
     24 C         141.4546  138.6398  161.0039 C.3     1  UNL1        0.0771
     25 C         142.0804  139.3347  162.1768 C.3     1  UNL1        0.0449
     26 O         143.0007  144.2292  160.4517 O.3     1  UNL1       -0.4755
     27 C         144.3824  142.5968  158.9766 C.3     1  UNL1        0.0512
     28 C         143.0571  143.1412  159.4208 C.3     1  UNL1        0.2055
@<TRIPOS>BOND
     1    27    28    1
     2    28    26    1
     3    26     1    1
     4     1     2   ar
     5     2     3   ar
     6     3     4   ar
     7     4     5   ar
     8     5     6   ar
     9     5     7    1
    10     7    18    1
    11    18    19    2
    12    19    20    1
    13    20    21    1
    14    20    22    1
    15    22    23    1
    16    22    24    1
    17    24    25    1
    18     7     8    2
    19     8     9    1
    20     9    10   ar
    21    10    11   ar
    22    11    12    1
    23    11    13   ar
    24    13    14   ar
    25    14    15   ar
    26    15    16    1
    27     6     1   ar
    28    25    18    1
    29    15     9   ar
    30    16     4    1
    31    16    17    1
@<TRIPOS>MOLECULE
*****
 28 31 0 0 0
SMALL
GASTEIGER

@<TRIPOS>ATOM
      1 C         144.2640  142.4545  163.2714 C.ar    1  UNL1        0.1387
      2 C         144.8725  143.1485  164.4538 C.ar    1  UNL1        0.0382
      3 C         144.2346  143.0253  165.8058 C.ar    1  UNL1        0.0178
      4 C         142.9881  142.2083  165.9754 C.ar    1  UNL1        0.0500
      5 C         142.3797  141.5144  164.7929 C.ar    1  UNL1        0.0337
      6 C         143.0176  141.6375  163.4409 C.ar    1  UNL1        0.0396
      7 C         141.1497  140.6573  164.7425 C.2     1  UNL1        0.0784
      8 N         140.2243  140.2825  165.8620 N.2     1  UNL1       -0.2444
      9 C         140.3006  140.6722  167.3085 C.ar    1  UNL1        0.0954
     10 C         139.1701  140.0790  168.0961 C.ar    1  UNL1        0.0317
     11 C         139.0600  140.3466  169.5679 C.ar    1  UNL1        0.0593
     12 CL        137.9297  139.7534  170.3556 Cl      1  UNL1       -0.0822
     13 C         140.0803  141.2073  170.2521 C.ar    1  UNL1        0.0128
     14 C         141.2107  141.8005  169.4645 C.ar    1  UNL1        0.0170
     15 C         141.3208  141.5329  167.9927 C.ar    1  UNL1        0.0662
     16 N         142.5170  142.2166  167.3994 N.pl3   1  UNL1       -0.3113
     17 H         143.0652  142.7399  168.0277 H       1  UNL1        0.1523
     18 C         140.7985  140.1015  163.3942 C.2     1  UNL1       -0.0061
     19 C         139.9848  140.9187  162.4350 C.2     1  UNL1       -0.0132
     20 C         139.6335  140.3630  161.0867 C.3     1  UNL1        0.0796
     21 C         138.8198  141.1802  160.1274 C.3     1  UNL1        0.0222
     22 N         140.0960  138.9901  160.6976 N.3     1  UNL1       -0.2688
     23 C         139.7448  138.4343  159.3494 C.3     1  UNL1        0.0899
     24 C         140.9097  138.1729  161.6569 C.3     1  UNL1        0.0771
     25 C         141.2609  138.7286  163.0052 C.3     1  UNL1        0.0449
     26 O         144.9020  142.5777  161.9194 O.3     1  UNL1       -0.4755
     27 C         143.6189  141.5978  159.8839 C.3     1  UNL1        0.0512
     28 C         144.0481  142.7790  160.7027 C.3     1  UNL1        0.2055
@<TRIPOS>BOND
     1    27    28    1
     2    28    26    1
     3    26     1    1
     4     1     2   ar
     5     2     3   ar
     6     3     4   ar
     7     4     5   ar
     8     5     6   ar
     9     5     7    1
    10     7    18    1
    11    18    19    2
    12    19    20    1
    13    20    21    1
    14    20    22    1
    15    22    23    1
    16    22    24    1
    17    24    25    1
    18     7     8    2
    19     8     9    1
    20     9    10   ar
    21    10    11   ar
    22    11    12    1
    23    11    13   ar
    24    13    14   ar
    25    14    15   ar
    26    15    16    1
    27     6     1   ar
    28    25    18    1
    29    15     9   ar
    30    16     4    1
    31    16    17    1
@<TRIPOS>MOLECULE
*****
 28 31 0 0 0
SMALL
GASTEIGER

@<TRIPOS>ATOM
      1 C         142.2590  143.4004  160.7228 C.ar    1  UNL1        0.1387
      2 C         142.7133  143.9994  162.0208 C.ar    1  UNL1        0.0382
      3 C         142.2164  143.4385  163.3202 C.ar    1  UNL1        0.0178
      4 C         141.2654  142.2786  163.3217 C.ar    1  UNL1        0.0500
      5 C         140.8111  141.6796  162.0236 C.ar    1  UNL1        0.0337
      6 C         141.3080  142.2405  160.7242 C.ar    1  UNL1        0.0396
      7 C         139.8743  140.5294  161.8015 C.2     1  UNL1        0.0784
      8 N         139.1604  139.6940  162.8225 N.2     1  UNL1       -0.2444
      9 C         139.2069  139.8026  164.3178 C.ar    1  UNL1        0.0954
     10 C         138.3393  138.7670  164.9698 C.ar    1  UNL1        0.0317
     11 C         138.2437  138.7022  166.4653 C.ar    1  UNL1        0.0593
     12 CL        137.3762  137.6668  167.1173 Cl      1  UNL1       -0.0822
     13 C         139.0157  139.6730  167.3089 C.ar    1  UNL1        0.0128
     14 C         139.8833  140.7085  166.6570 C.ar    1  UNL1        0.0170
     15 C         139.9789  140.7733  165.1615 C.ar    1  UNL1        0.0662
     16 N         140.8950  141.8753  164.7181 N.pl3   1  UNL1       -0.3113
     17 H         141.3078  142.4037  165.4390 H       1  UNL1        0.1523
     18 C         139.6175  140.1664  160.3689 C.2     1  UNL1       -0.0061
     19 C         138.6048  140.9332  159.5711 C.2     1  UNL1       -0.0132
     20 C         138.3478  140.5703  158.1384 C.3     1  UNL1        0.0796
     21 C         137.3351  141.3370  157.3406 C.3     1  UNL1        0.0222
     22 N         139.1036  139.4407  157.5037 N.3     1  UNL1       -0.2688
     23 C         138.8467  139.0778  156.0711 C.3     1  UNL1        0.0899
     24 C         140.1163  138.6740  158.3016 C.3     1  UNL1        0.0771
     25 C         140.3733  139.0369  159.7342 C.3     1  UNL1        0.0449
     26 O         142.7559  143.9614  159.4234 O.3     1  UNL1       -0.4755
     27 C         142.2188  145.5210  157.4161 C.3     1  UNL1        0.0512
     28 C         141.7812  144.4887  158.4126 C.3     1  UNL1        0.2055
@<TRIPOS>BOND
     1    27    28    1
     2    28    26    1
     3    26     1    1
     4     1     2   ar
     5     2     3   ar
     6     3     4   ar
     7     4     5   ar
     8     5     6   ar
     9     5     7    1
    10     7    18    1
    11    18    19    2
    12    19    20    1
    13    20    21    1
    14    20    22    1
    15    22    23    1
    16    22    24    1
    17    24    25    1
    18     7     8    2
    19     8     9    1
    20     9    10   ar
    21    10    11   ar
    22    11    12    1
    23    11    13   ar
    24    13    14   ar
    25    14    15   ar
    26    15    16    1
    27     6     1   ar
    28    25    18    1
    29    15     9   ar
    30    16     4    1
    31    16    17    1
