@<TRIPOS>MOLECULE
*****
 46 51 0 0 0
SMALL
GASTEIGER

@<TRIPOS>ATOM
      1 N         139.1167  142.3495  160.4152 N.am    1  UNL1       -0.1907
      2 C         138.4668  141.4315  159.4227 C.2     1  UNL1        0.3219
      3 O         137.8422  140.1025  159.7284 O.2     1  UNL1       -0.2512
      4 N         138.5511  142.0759  158.0708 N.am    1  UNL1       -0.2223
      5 C         139.2532  143.3922  158.2277 C.3     1  UNL1        0.1391
      6 C         139.9660  144.6751  158.5376 C.3     1  UNL1        0.0449
      7 C         140.2659  145.6509  157.4387 C.3     1  UNL1        0.0746
      8 N         139.8529  145.3438  156.0297 N.3     1  UNL1       -0.2676
      9 C         139.1402  144.0610  155.7197 C.3     1  UNL1        0.0746
     10 C         138.8403  143.0852  156.8187 C.3     1  UNL1        0.0449
     11 C         139.6028  143.5613  159.6766 C.2     1  UNL1        0.2529
     12 O         140.3136  144.7359  160.2808 O.2     1  UNL1       -0.2724
     13 C         139.5350  141.5998  164.8325 C.ar    1  UNL1       -0.0002
     14 C         140.6193  141.1645  163.8919 C.ar    1  UNL1        0.0013
     15 C         140.4799  141.4144  162.4194 C.ar    1  UNL1        0.0154
     16 C         139.2561  142.0996  161.8876 C.ar    1  UNL1        0.0622
     17 C         138.1718  142.5349  162.8281 C.ar    1  UNL1        0.0154
     18 C         138.3113  142.2850  164.3006 C.ar    1  UNL1        0.0013
     19 C         138.4475  139.0757  166.0351 C.3     1  UNL1        0.0310
     20 C         139.1306  140.0879  166.9062 C.ar    1  UNL1       -0.0218
     21 C         139.2700  139.8379  168.3787 C.ar    1  UNL1       -0.0031
     22 C         139.9532  140.8501  169.2498 C.ar    1  UNL1        0.0137
     23 C         140.4969  142.1122  168.6485 C.ar    1  UNL1        0.0011
     24 C         140.3575  142.3621  167.1760 C.ar    1  UNL1       -0.0003
     25 C         139.6744  141.3499  166.3049 C.ar    1  UNL1       -0.0040
     26 C         140.0926  140.6002  170.7223 C.2     1  UNL1        0.0729
     27 O         140.8303  141.5824  171.5831 O.co2   1  UNL1       -0.5446
     28 O         139.4943  139.3681  171.3339 O.co2   1  UNL1       -0.5446
     29 C         138.0257  141.5045  156.7873 C.ar    1  UNL1        0.1421
     30 C         136.5898  141.7118  156.4063 C.ar    1  UNL1        0.0579
     31 C         136.0645  141.1403  155.1228 C.ar    1  UNL1        0.1571
     32 N         136.9750  140.3615  154.2202 N.ar    1  UNL1       -0.2199
     33 C         138.4109  140.1542  154.6013 C.ar    1  UNL1        0.2000
     34 N         138.9362  140.7257  155.8848 N.ar    1  UNL1       -0.2086
     35 C         134.6286  141.3476  154.7417 C.3     1  UNL1        0.4350
     36 F         133.1926  141.5549  154.3607 F       1  UNL1       -0.1644
     37 F         135.0560  141.7994  153.3766 F       1  UNL1       -0.1644
     38 F         134.2011  140.8958  156.1067 F       1  UNL1       -0.1644
     39 C         140.1528  146.3197  154.9307 C.3     1  UNL1        0.1183
     40 C         139.6829  147.7400  155.0399 C.ar    1  UNL1        0.0712
     41 N         138.8304  148.1608  156.2001 N.ar    1  UNL1       -0.2471
     42 C         138.3605  149.5811  156.3093 C.ar    1  UNL1        0.0985
     43 C         138.7431  150.5806  155.2584 C.ar    1  UNL1        0.0203
     44 C         139.5957  150.1598  154.0982 C.ar    1  UNL1       -0.0015
     45 C         140.0656  148.7396  153.9889 C.ar    1  UNL1       -0.0069
     46 C         140.9182  148.3188  152.8287 C.3     1  UNL1        0.0323
@<TRIPOS>UNITY_ATOM_ATTR
27 1
charge -1
@<TRIPOS>BOND
     1    19    20    1
     2    20    21   ar
     3    21    22   ar
     4    22    26    1
     5    26    27   ar
     6    26    28   ar
     7    22    23   ar
     8    23    24   ar
     9    24    25   ar
    10    25    13    1
    11    13    14   ar
    12    14    15   ar
    13    15    16   ar
    14    16     1    1
    15     1     2   am
    16     2     3    2
    17     2     4   am
    18     4    29    1
    19    29    30   ar
    20    30    31   ar
    21    31    35    1
    22    35    36    1
    23    35    37    1
    24    35    38    1
    25    31    32   ar
    26    32    33   ar
    27    33    34   ar
    28     4     5    1
    29     5     6    1
    30     6     7    1
    31     7     8    1
    32     8    39    1
    33    39    40    1
    34    40    41   ar
    35    41    42   ar
    36    42    43   ar
    37    43    44   ar
    38    44    45   ar
    39    45    46    1
    40     8     9    1
    41     9    10    1
    42     5    11    1
    43    11    12    2
    44    16    17   ar
    45    17    18   ar
    46    25    20   ar
    47    18    13   ar
    48    11     1   am
    49    34    29   ar
    50    10     5    1
    51    45    40   ar
@<TRIPOS>MOLECULE
*****
 46 51 0 0 0
SMALL
GASTEIGER

@<TRIPOS>ATOM
      1 N         142.8741  140.5439  160.7413 N.am    1  UNL1       -0.1907
      2 C         143.4922  141.5720  159.8406 C.2     1  UNL1        0.3219
      3 O         143.8477  142.9785  160.2217 O.2     1  UNL1       -0.2512
      4 N         143.6923  140.9466  158.4920 N.am    1  UNL1       -0.2223
      5 C         143.1979  139.5319  158.5591 C.3     1  UNL1        0.1391
      6 C         142.6674  138.1458  158.7763 C.3     1  UNL1        0.0449
      7 C         142.6770  137.1542  157.6509 C.3     1  UNL1        0.0746
      8 N         143.2171  137.5488  156.3083 N.3     1  UNL1       -0.2676
      9 C         143.7476  138.9349  156.0910 C.3     1  UNL1        0.0746
     10 C         143.7380  139.9265  157.2164 C.3     1  UNL1        0.0449
     11 C         142.6922  139.2831  159.9492 C.2     1  UNL1        0.2529
     12 O         142.1073  137.9989  160.4579 O.2     1  UNL1       -0.2724
     13 C         141.7609  141.1378  165.0607 C.ar    1  UNL1       -0.0002
     14 C         141.1072  141.9688  163.9967 C.ar    1  UNL1        0.0013
     15 C         141.4783  141.7709  162.5568 C.ar    1  UNL1        0.0154
     16 C         142.5030  140.7419  162.1811 C.ar    1  UNL1        0.0622
     17 C         143.1566  139.9110  163.2451 C.ar    1  UNL1        0.0154
     18 C         142.7856  140.1090  164.6849 C.ar    1  UNL1        0.0013
     19 C         139.4124  139.6741  166.2195 C.3     1  UNL1        0.0310
     20 C         140.2156  140.6040  167.0799 C.ar    1  UNL1       -0.0218
     21 C         139.8445  140.8019  168.5198 C.ar    1  UNL1       -0.0031
     22 C         140.6477  141.7317  169.3803 C.ar    1  UNL1        0.0137
     23 C         141.8219  142.4636  168.8008 C.ar    1  UNL1        0.0011
     24 C         142.1930  142.2656  167.3610 C.ar    1  UNL1       -0.0003
     25 C         141.3898  141.3358  166.5005 C.ar    1  UNL1       -0.0040
     26 C         140.2766  141.9297  170.8201 C.2     1  UNL1        0.0729
     27 O         140.7334  140.9443  171.8546 O.co2   1  UNL1       -0.5446
     28 O         139.4487  143.1131  171.2254 O.co2   1  UNL1       -0.5446
     29 C         144.2831  141.6179  157.2877 C.ar    1  UNL1        0.1421
     30 C         145.7640  141.5708  157.0538 C.ar    1  UNL1        0.0579
     31 C         146.3547  142.2421  155.8495 C.ar    1  UNL1        0.1571
     32 N         145.4646  142.9605  154.8790 N.ar    1  UNL1       -0.2199
     33 C         143.9837  143.0075  155.1130 C.ar    1  UNL1        0.2000
     34 N         143.3930  142.3362  156.3173 N.ar    1  UNL1       -0.2086
     35 C         147.8356  142.1950  155.6155 C.3     1  UNL1        0.4350
     36 F         149.3165  142.1480  155.3816 F       1  UNL1       -0.1644
     37 F         147.5974  141.8174  154.1834 F       1  UNL1       -0.1644
     38 F         148.0738  142.5726  157.0475 F       1  UNL1       -0.1644
     39 C         143.2267  136.5571  155.1828 C.3     1  UNL1        0.1183
     40 C         142.9219  135.1134  155.4527 C.ar    1  UNL1        0.0712
     41 N         143.9054  134.2672  156.2054 N.ar    1  UNL1       -0.2471
     42 C         143.6006  132.8234  156.4752 C.ar    1  UNL1        0.0985
     43 C         142.3122  132.2260  155.9924 C.ar    1  UNL1        0.0203
     44 C         141.3287  133.0722  155.2397 C.ar    1  UNL1       -0.0015
     45 C         141.6335  134.5159  154.9698 C.ar    1  UNL1       -0.0069
     46 C         140.6499  135.3621  154.2171 C.3     1  UNL1        0.0323
@<TRIPOS>UNITY_ATOM_ATTR
27 1
charge -1
@<TRIPOS>BOND
     1    19    20    1
     2    20    21   ar
     3    21    22   ar
     4    22    26    1
     5    26    27   ar
     6    26    28   ar
     7    22    23   ar
     8    23    24   ar
     9    24    25   ar
    10    25    13    1
    11    13    14   ar
    12    14    15   ar
    13    15    16   ar
    14    16     1    1
    15     1     2   am
    16     2     3    2
    17     2     4   am
    18     4    29    1
    19    29    30   ar
    20    30    31   ar
    21    31    35    1
    22    35    36    1
    23    35    37    1
    24    35    38    1
    25    31    32   ar
    26    32    33   ar
    27    33    34   ar
    28     4     5    1
    29     5     6    1
    30     6     7    1
    31     7     8    1
    32     8    39    1
    33    39    40    1
    34    40    41   ar
    35    41    42   ar
    36    42    43   ar
    37    43    44   ar
    38    44    45   ar
    39    45    46    1
    40     8     9    1
    41     9    10    1
    42     5    11    1
    43    11    12    2
    44    16    17   ar
    45    17    18   ar
    46    25    20   ar
    47    18    13   ar
    48    11     1   am
    49    34    29   ar
    50    10     5    1
    51    45    40   ar
@<TRIPOS>MOLECULE
*****
 46 51 0 0 0
SMALL
GASTEIGER

@<TRIPOS>ATOM
      1 N         142.1163  139.6315  160.7980 N.am    1  UNL1       -0.1907
      2 C         141.3989  138.5826  160.0010 C.2     1  UNL1        0.3219
      3 O         140.2752  137.7183  160.4908 O.2     1  UNL1       -0.2512
      4 N         142.0027  138.5498  158.6283 N.am    1  UNL1       -0.2223
      5 C         143.0932  139.5785  158.5768 C.3     1  UNL1        0.1391
      6 C         144.1485  140.6400  158.6748 C.3     1  UNL1        0.0449
      7 C         145.0163  140.9464  157.4903 C.3     1  UNL1        0.0746
      8 N         144.8290  140.1912  156.2079 N.3     1  UNL1       -0.2676
      9 C         143.7738  139.1296  156.1099 C.3     1  UNL1        0.0746
     10 C         142.9059  138.8233  157.2944 C.3     1  UNL1        0.0449
     11 C         143.1635  140.2470  159.9178 C.2     1  UNL1        0.2529
     12 O         144.1140  141.3392  160.3097 O.2     1  UNL1       -0.2724
     13 C         141.2750  140.7375  165.0780 C.ar    1  UNL1       -0.0002
     14 C         142.2475  139.6394  164.7644 C.ar    1  UNL1        0.0013
     15 C         142.5280  139.2707  163.3378 C.ar    1  UNL1        0.0154
     16 C         141.8359  140.0002  162.2247 C.ar    1  UNL1        0.0622
     17 C         140.8634  141.0982  162.5383 C.ar    1  UNL1        0.0154
     18 C         140.5830  141.4669  163.9650 C.ar    1  UNL1        0.0013
     19 C         139.0871  139.3440  166.5852 C.3     1  UNL1        0.0310
     20 C         139.9006  140.4094  167.2582 C.ar    1  UNL1       -0.0218
     21 C         139.6201  140.7781  168.6850 C.ar    1  UNL1       -0.0031
     22 C         140.4336  141.8435  169.3581 C.ar    1  UNL1        0.0137
     23 C         141.5276  142.5403  168.6045 C.ar    1  UNL1        0.0011
     24 C         141.8080  142.1716  167.1778 C.ar    1  UNL1       -0.0003
     25 C         140.9945  141.1062  166.5047 C.ar    1  UNL1       -0.0040
     26 C         140.1531  142.2122  170.7848 C.2     1  UNL1        0.0729
     27 O         139.2924  143.4003  171.0970 O.co2   1  UNL1       -0.5446
     28 O         140.7335  141.3928  171.8992 O.co2   1  UNL1       -0.5446
     29 C         141.5886  137.6470  157.5043 C.ar    1  UNL1        0.1421
     30 C         142.3571  136.3880  157.2315 C.ar    1  UNL1        0.0579
     31 C         141.9429  135.4852  156.1075 C.ar    1  UNL1        0.1571
     32 N         140.7603  135.8413  155.2562 N.ar    1  UNL1       -0.2199
     33 C         139.9919  137.1003  155.5290 C.ar    1  UNL1        0.2000
     34 N         140.4060  138.0031  156.6530 N.ar    1  UNL1       -0.2086
     35 C         142.7114  134.2262  155.8347 C.3     1  UNL1        0.4350
     36 F         143.4798  132.9672  155.5619 F       1  UNL1       -0.1644
     37 F         143.9978  134.9932  155.9184 F       1  UNL1       -0.1644
     38 F         141.4251  133.4592  155.7510 F       1  UNL1       -0.1644
     39 C         145.6969  140.4975  155.0235 C.3     1  UNL1        0.1183
     40 C         145.8393  141.9116  154.5438 C.ar    1  UNL1        0.0712
     41 N         144.6839  142.5973  153.8769 N.ar    1  UNL1       -0.2471
     42 C         144.8264  144.0115  153.3972 C.ar    1  UNL1        0.0985
     43 C         146.1242  144.7398  153.5844 C.ar    1  UNL1        0.0203
     44 C         147.2797  144.0540  154.2512 C.ar    1  UNL1       -0.0015
     45 C         147.1372  142.6400  154.7309 C.ar    1  UNL1       -0.0069
     46 C         148.2927  141.9542  155.3978 C.3     1  UNL1        0.0323
@<TRIPOS>UNITY_ATOM_ATTR
27 1
charge -1
@<TRIPOS>BOND
     1    19    20    1
     2    20    21   ar
     3    21    22   ar
     4    22    26    1
     5    26    27   ar
     6    26    28   ar
     7    22    23   ar
     8    23    24   ar
     9    24    25   ar
    10    25    13    1
    11    13    14   ar
    12    14    15   ar
    13    15    16   ar
    14    16     1    1
    15     1     2   am
    16     2     3    2
    17     2     4   am
    18     4    29    1
    19    29    30   ar
    20    30    31   ar
    21    31    35    1
    22    35    36    1
    23    35    37    1
    24    35    38    1
    25    31    32   ar
    26    32    33   ar
    27    33    34   ar
    28     4     5    1
    29     5     6    1
    30     6     7    1
    31     7     8    1
    32     8    39    1
    33    39    40    1
    34    40    41   ar
    35    41    42   ar
    36    42    43   ar
    37    43    44   ar
    38    44    45   ar
    39    45    46    1
    40     8     9    1
    41     9    10    1
    42     5    11    1
    43    11    12    2
    44    16    17   ar
    45    17    18   ar
    46    25    20   ar
    47    18    13   ar
    48    11     1   am
    49    34    29   ar
    50    10     5    1
    51    45    40   ar
@<TRIPOS>MOLECULE
*****
 46 51 0 0 0
SMALL
GASTEIGER

@<TRIPOS>ATOM
      1 N         141.6054  139.4918  160.7137 N.am    1  UNL1       -0.1907
      2 C         142.6399  138.6994  159.9708 C.2     1  UNL1        0.3219
      3 O         143.9588  138.2398  160.5176 O.2     1  UNL1       -0.2512
      4 N         142.1239  138.4475  158.5851 N.am    1  UNL1       -0.2223
      5 C         140.7704  139.0841  158.4715 C.3     1  UNL1        0.1391
      6 C         139.4351  139.7666  158.5071 C.3     1  UNL1        0.0449
      7 C         138.5565  139.7591  157.2914 C.3     1  UNL1        0.0746
      8 N         139.0130  139.0691  156.0402 N.3     1  UNL1       -0.2676
      9 C         140.3483  138.3866  156.0047 C.3     1  UNL1        0.0746
     10 C         141.2270  138.3941  157.2203 C.3     1  UNL1        0.0449
     11 C         140.4499  139.7296  159.7871 C.2     1  UNL1        0.2529
     12 O         139.1945  140.4809  160.1180 O.2     1  UNL1       -0.2724
     13 C         141.9138  140.9073  164.9741 C.ar    1  UNL1       -0.0002
     14 C         141.5988  141.8841  163.8802 C.ar    1  UNL1        0.0013
     15 C         141.4960  141.4123  162.4601 C.ar    1  UNL1        0.0154
     16 C         141.7082  139.9636  162.1339 C.ar    1  UNL1        0.0622
     17 C         142.0231  138.9869  163.2277 C.ar    1  UNL1        0.0154
     18 C         142.1260  139.4587  164.6478 C.ar    1  UNL1        0.0013
     19 C         139.5703  140.6169  166.8246 C.3     1  UNL1        0.0310
     20 C         140.8449  141.2339  167.3195 C.ar    1  UNL1       -0.0218
     21 C         140.9476  141.7057  168.7397 C.ar    1  UNL1       -0.0031
     22 C         142.2222  142.3227  169.2346 C.ar    1  UNL1        0.0137
     23 C         143.3939  142.4679  168.3093 C.ar    1  UNL1        0.0011
     24 C         143.2911  141.9961  166.8892 C.ar    1  UNL1       -0.0003
     25 C         142.0166  141.3791  166.3943 C.ar    1  UNL1       -0.0040
     26 C         142.3250  142.7945  170.6548 C.2     1  UNL1        0.0729
     27 O         143.2833  143.8914  171.0131 O.co2   1  UNL1       -0.5446
     28 O         141.4695  142.1694  171.7165 O.co2   1  UNL1       -0.5446
     29 C         142.8362  137.6916  157.5029 C.ar    1  UNL1        0.1421
     30 C         142.7203  136.1978  157.4303 C.ar    1  UNL1        0.0579
     31 C         143.4327  135.4420  156.3481 C.ar    1  UNL1        0.1571
     32 N         144.2609  136.1799  155.3383 N.ar    1  UNL1       -0.2199
     33 C         144.3768  137.6736  155.4108 C.ar    1  UNL1        0.2000
     34 N         143.6644  138.4294  156.4931 N.ar    1  UNL1       -0.2086
     35 C         143.3168  133.9483  156.2756 C.3     1  UNL1        0.4350
     36 F         143.2009  132.4544  156.2030 F       1  UNL1       -0.1644
     37 F         143.2008  133.8846  157.7698 F       1  UNL1       -0.1644
     38 F         143.4328  134.0118  154.7814 F       1  UNL1       -0.1644
     39 C         138.1343  139.0616  154.8245 C.3     1  UNL1        0.1183
     40 C         136.8039  139.7536  154.8565 C.ar    1  UNL1        0.0712
     41 N         135.5761  138.9996  155.2736 N.ar    1  UNL1       -0.2471
     42 C         134.2456  139.6917  155.3056 C.ar    1  UNL1        0.0985
     43 C         134.1430  141.1378  154.9205 C.ar    1  UNL1        0.0203
     44 C         135.3708  141.8918  154.5034 C.ar    1  UNL1       -0.0015
     45 C         136.7012  141.1998  154.4714 C.ar    1  UNL1       -0.0069
     46 C         137.9290  141.9538  154.0543 C.3     1  UNL1        0.0323
@<TRIPOS>UNITY_ATOM_ATTR
27 1
charge -1
@<TRIPOS>BOND
     1    19    20    1
     2    20    21   ar
     3    21    22   ar
     4    22    26    1
     5    26    27   ar
     6    26    28   ar
     7    22    23   ar
     8    23    24   ar
     9    24    25   ar
    10    25    13    1
    11    13    14   ar
    12    14    15   ar
    13    15    16   ar
    14    16     1    1
    15     1     2   am
    16     2     3    2
    17     2     4   am
    18     4    29    1
    19    29    30   ar
    20    30    31   ar
    21    31    35    1
    22    35    36    1
    23    35    37    1
    24    35    38    1
    25    31    32   ar
    26    32    33   ar
    27    33    34   ar
    28     4     5    1
    29     5     6    1
    30     6     7    1
    31     7     8    1
    32     8    39    1
    33    39    40    1
    34    40    41   ar
    35    41    42   ar
    36    42    43   ar
    37    43    44   ar
    38    44    45   ar
    39    45    46    1
    40     8     9    1
    41     9    10    1
    42     5    11    1
    43    11    12    2
    44    16    17   ar
    45    17    18   ar
    46    25    20   ar
    47    18    13   ar
    48    11     1   am
    49    34    29   ar
    50    10     5    1
    51    45    40   ar
@<TRIPOS>MOLECULE
*****
 46 51 0 0 0
SMALL
GASTEIGER

@<TRIPOS>ATOM
      1 N         141.1622  138.8195  160.4219 N.am    1  UNL1       -0.1907
      2 C         142.2288  138.0345  159.7175 C.2     1  UNL1        0.3219
      3 O         143.3643  137.3053  160.3721 O.2     1  UNL1       -0.2512
      4 N         141.9605  138.1069  158.2434 N.am    1  UNL1       -0.2223
      5 C         140.7280  138.9366  158.0367 C.3     1  UNL1        0.1391
      6 C         139.4900  139.7819  157.9862 C.3     1  UNL1        0.0449
      7 C         138.8613  140.1130  156.6652 C.3     1  UNL1        0.0746
      8 N         139.4707  139.5988  155.3947 N.3     1  UNL1       -0.2676
      9 C         140.7088  138.7534  155.4452 C.3     1  UNL1        0.0746
     10 C         141.3374  138.4223  156.7662 C.3     1  UNL1        0.0449
     11 C         140.2346  139.3770  159.3831 C.2     1  UNL1        0.2529
     12 O         139.0259  140.2259  159.6447 O.2     1  UNL1       -0.2724
     13 C         140.8071  139.4001  164.8700 C.ar    1  UNL1       -0.0002
     14 C         140.9469  140.5898  163.9672 C.ar    1  UNL1        0.0013
     15 C         141.0652  140.3962  162.4845 C.ar    1  UNL1        0.0154
     16 C         141.0438  139.0130  161.9046 C.ar    1  UNL1        0.0622
     17 C         140.9040  137.8234  162.8074 C.ar    1  UNL1        0.0154
     18 C         140.7857  138.0169  164.2901 C.ar    1  UNL1        0.0013
     19 C         138.0989  139.5949  166.1459 C.3     1  UNL1        0.0310
     20 C         139.3347  139.6910  166.9907 C.ar    1  UNL1       -0.0218
     21 C         139.2163  139.8845  168.4735 C.ar    1  UNL1       -0.0031
     22 C         140.4520  139.9806  169.3183 C.ar    1  UNL1        0.0137
     23 C         141.8062  139.8832  168.6803 C.ar    1  UNL1        0.0011
     24 C         141.9245  139.6897  167.1976 C.ar    1  UNL1       -0.0003
     25 C         140.6888  139.5936  166.3528 C.ar    1  UNL1       -0.0040
     26 C         140.3337  140.1741  170.8011 C.2     1  UNL1        0.0729
     27 O         139.4074  139.3053  171.5992 O.co2   1  UNL1       -0.5446
     28 O         141.1416  141.2365  171.4856 O.co2   1  UNL1       -0.5446
     29 C         142.7806  137.4627  157.1653 C.ar    1  UNL1        0.1421
     30 C         142.5606  136.0206  156.8161 C.ar    1  UNL1        0.0579
     31 C         143.3808  135.3765  155.7380 C.ar    1  UNL1        0.1571
     32 N         144.4210  136.1744  155.0090 N.ar    1  UNL1       -0.2199
     33 C         144.6410  137.6165  155.3582 C.ar    1  UNL1        0.2000
     34 N         143.8208  138.2606  156.4363 N.ar    1  UNL1       -0.2086
     35 C         143.1608  133.9344  155.3887 C.3     1  UNL1        0.4350
     36 F         142.9409  132.4922  155.0396 F       1  UNL1       -0.1644
     37 F         141.9771  134.3178  154.5508 F       1  UNL1       -0.1644
     38 F         144.3444  133.5509  156.2266 F       1  UNL1       -0.1644
     39 C         138.8420  139.9299  154.0736 C.3     1  UNL1        0.1183
     40 C         137.4332  140.4421  154.0209 C.ar    1  UNL1        0.0712
     41 N         137.1746  141.9135  153.8865 N.ar    1  UNL1       -0.2471
     42 C         135.7657  142.4257  153.8338 C.ar    1  UNL1        0.0985
     43 C         134.6155  141.4665  153.9154 C.ar    1  UNL1        0.0203
     44 C         134.8740  139.9951  154.0498 C.ar    1  UNL1       -0.0015
     45 C         136.2828  139.4829  154.1025 C.ar    1  UNL1       -0.0069
     46 C         136.5414  138.0114  154.2369 C.3     1  UNL1        0.0323
@<TRIPOS>UNITY_ATOM_ATTR
27 1
charge -1
@<TRIPOS>BOND
     1    19    20    1
     2    20    21   ar
     3    21    22   ar
     4    22    26    1
     5    26    27   ar
     6    26    28   ar
     7    22    23   ar
     8    23    24   ar
     9    24    25   ar
    10    25    13    1
    11    13    14   ar
    12    14    15   ar
    13    15    16   ar
    14    16     1    1
    15     1     2   am
    16     2     3    2
    17     2     4   am
    18     4    29    1
    19    29    30   ar
    20    30    31   ar
    21    31    35    1
    22    35    36    1
    23    35    37    1
    24    35    38    1
    25    31    32   ar
    26    32    33   ar
    27    33    34   ar
    28     4     5    1
    29     5     6    1
    30     6     7    1
    31     7     8    1
    32     8    39    1
    33    39    40    1
    34    40    41   ar
    35    41    42   ar
    36    42    43   ar
    37    43    44   ar
    38    44    45   ar
    39    45    46    1
    40     8     9    1
    41     9    10    1
    42     5    11    1
    43    11    12    2
    44    16    17   ar
    45    17    18   ar
    46    25    20   ar
    47    18    13   ar
    48    11     1   am
    49    34    29   ar
    50    10     5    1
    51    45    40   ar
@<TRIPOS>MOLECULE
*****
 46 51 0 0 0
SMALL
GASTEIGER

@<TRIPOS>ATOM
      1 N         142.2718  139.8423  160.7608 N.am    1  UNL1       -0.1907
      2 C         141.7624  138.6155  160.0640 C.2     1  UNL1        0.3219
      3 O         140.9403  137.5257  160.6856 O.2     1  UNL1       -0.2512
      4 N         142.2193  138.6698  158.6363 N.am    1  UNL1       -0.2223
      5 C         143.0113  139.9303  158.4507 C.3     1  UNL1        0.1391
      6 C         143.7755  141.2205  158.4168 C.3     1  UNL1        0.0449
      7 C         144.4215  141.6762  157.1421 C.3     1  UNL1        0.0746
      8 N         144.3033  140.8417  155.9013 N.3     1  UNL1       -0.2676
      9 C         143.5391  139.5515  155.9352 C.3     1  UNL1        0.0746
     10 C         142.8931  139.0957  157.2099 C.3     1  UNL1        0.0449
     11 C         143.0437  140.6548  159.7637 C.2     1  UNL1        0.2529
     12 O         143.7278  141.9624  160.0325 O.2     1  UNL1       -0.2724
     13 C         141.6022  140.8993  165.0833 C.ar    1  UNL1       -0.0002
     14 C         140.9078  141.6769  164.0047 C.ar    1  UNL1        0.0013
     15 C         141.1310  141.3245  162.5639 C.ar    1  UNL1        0.0154
     16 C         142.0486  140.1946  162.2016 C.ar    1  UNL1        0.0622
     17 C         142.7430  139.4171  163.2801 C.ar    1  UNL1        0.0154
     18 C         142.5198  139.7694  164.7209 C.ar    1  UNL1        0.0013
     19 C         143.5139  142.7321  166.4928 C.3     1  UNL1        0.0310
     20 C         142.3349  142.1681  167.2288 C.ar    1  UNL1       -0.0218
     21 C         142.1117  142.5205  168.6697 C.ar    1  UNL1       -0.0031
     22 C         140.9327  141.9564  169.4058 C.ar    1  UNL1        0.0137
     23 C         139.9768  141.0400  168.7010 C.ar    1  UNL1        0.0011
     24 C         140.2000  140.6876  167.2602 C.ar    1  UNL1       -0.0003
     25 C         141.3791  141.2517  166.5241 C.ar    1  UNL1       -0.0040
     26 C         140.7095  142.3088  170.8467 C.2     1  UNL1        0.0729
     27 O         141.7335  141.9356  171.8773 O.co2   1  UNL1       -0.5446
     28 O         139.4623  143.0343  171.2569 O.co2   1  UNL1       -0.5446
     29 C         141.9345  137.6440  157.5797 C.ar    1  UNL1        0.1421
     30 C         142.8676  136.4853  157.3883 C.ar    1  UNL1        0.0579
     31 C         142.5827  135.4595  156.3317 C.ar    1  UNL1        0.1571
     32 N         141.3646  135.5924  155.4663 N.ar    1  UNL1       -0.2199
     33 C         140.4315  136.7511  155.6577 C.ar    1  UNL1        0.2000
     34 N         140.7165  137.7769  156.7143 N.ar    1  UNL1       -0.2086
     35 C         143.5158  134.3008  156.1403 C.3     1  UNL1        0.4350
     36 F         144.4490  133.1420  155.9490 F       1  UNL1       -0.1644
     37 F         143.1720  134.2649  154.6806 F       1  UNL1       -0.1644
     38 F         143.8596  134.3366  157.5999 F       1  UNL1       -0.1644
     39 C         144.9493  141.2975  154.6265 C.3     1  UNL1        0.1183
     40 C         146.4357  141.4896  154.5660 C.ar    1  UNL1        0.0712
     41 N         147.2164  141.7038  155.8288 N.ar    1  UNL1       -0.2471
     42 C         148.7028  141.8958  155.7682 C.ar    1  UNL1        0.0985
     43 C         149.4086  141.8737  154.4448 C.ar    1  UNL1        0.0203
     44 C         148.6279  141.6595  153.1820 C.ar    1  UNL1       -0.0015
     45 C         147.1416  141.4674  153.2425 C.ar    1  UNL1       -0.0069
     46 C         146.3609  141.2532  151.9797 C.3     1  UNL1        0.0323
@<TRIPOS>UNITY_ATOM_ATTR
27 1
charge -1
@<TRIPOS>BOND
     1    19    20    1
     2    20    21   ar
     3    21    22   ar
     4    22    26    1
     5    26    27   ar
     6    26    28   ar
     7    22    23   ar
     8    23    24   ar
     9    24    25   ar
    10    25    13    1
    11    13    14   ar
    12    14    15   ar
    13    15    16   ar
    14    16     1    1
    15     1     2   am
    16     2     3    2
    17     2     4   am
    18     4    29    1
    19    29    30   ar
    20    30    31   ar
    21    31    35    1
    22    35    36    1
    23    35    37    1
    24    35    38    1
    25    31    32   ar
    26    32    33   ar
    27    33    34   ar
    28     4     5    1
    29     5     6    1
    30     6     7    1
    31     7     8    1
    32     8    39    1
    33    39    40    1
    34    40    41   ar
    35    41    42   ar
    36    42    43   ar
    37    43    44   ar
    38    44    45   ar
    39    45    46    1
    40     8     9    1
    41     9    10    1
    42     5    11    1
    43    11    12    2
    44    16    17   ar
    45    17    18   ar
    46    25    20   ar
    47    18    13   ar
    48    11     1   am
    49    34    29   ar
    50    10     5    1
    51    45    40   ar
@<TRIPOS>MOLECULE
*****
 46 51 0 0 0
SMALL
GASTEIGER

@<TRIPOS>ATOM
      1 N         142.9715  140.4403  160.7583 N.am    1  UNL1       -0.1907
      2 C         143.4730  141.5044  159.8275 C.2     1  UNL1        0.3219
      3 O         143.8329  142.9100  160.2076 O.2     1  UNL1       -0.2512
      4 N         143.5514  140.9161  158.4500 N.am    1  UNL1       -0.2223
      5 C         143.0983  139.4882  158.5292 C.3     1  UNL1        0.1391
      6 C         142.6237  138.0845  158.7622 C.3     1  UNL1        0.0449
      7 C         142.5432  137.1202  157.6161 C.3     1  UNL1        0.0746
      8 N         142.9372  137.5596  156.2371 N.3     1  UNL1       -0.2676
      9 C         143.4118  138.9633  156.0041 C.3     1  UNL1        0.0746
     10 C         143.4923  139.9276  157.1502 C.3     1  UNL1        0.0449
     11 C         142.7399  139.1942  159.9558 C.2     1  UNL1        0.2529
     12 O         142.2381  137.8842  160.4868 O.2     1  UNL1       -0.2724
     13 C         142.2827  140.9045  165.1809 C.ar    1  UNL1       -0.0002
     14 C         143.2648  139.8886  164.6773 C.ar    1  UNL1        0.0013
     15 C         143.4944  139.7339  163.2031 C.ar    1  UNL1        0.0154
     16 C         142.7419  140.5950  162.2325 C.ar    1  UNL1        0.0622
     17 C         141.7599  141.6108  162.7360 C.ar    1  UNL1        0.0154
     18 C         141.5303  141.7655  164.2102 C.ar    1  UNL1        0.0013
     19 C         140.0251  139.4417  166.5091 C.3     1  UNL1        0.0310
     20 C         140.9243  140.3278  167.3191 C.ar    1  UNL1       -0.0218
     21 C         140.6947  140.4826  168.7934 C.ar    1  UNL1       -0.0031
     22 C         141.5939  141.3687  169.6036 C.ar    1  UNL1        0.0137
     23 C         142.7227  142.1000  168.9395 C.ar    1  UNL1        0.0011
     24 C         142.9523  141.9453  167.4653 C.ar    1  UNL1       -0.0003
     25 C         142.0531  141.0592  166.6551 C.ar    1  UNL1       -0.0040
     26 C         141.3643  141.5234  171.0778 C.2     1  UNL1        0.0729
     27 O         140.3835  140.6330  171.7816 O.co2   1  UNL1       -0.5446
     28 O         142.1155  142.5685  171.8482 O.co2   1  UNL1       -0.5446
     29 C         144.0034  141.6300  157.2107 C.ar    1  UNL1        0.1421
     30 C         145.4501  141.6035  156.8152 C.ar    1  UNL1        0.0579
     31 C         145.9020  142.3175  155.5759 C.ar    1  UNL1        0.1571
     32 N         144.9073  143.0581  154.7320 N.ar    1  UNL1       -0.2199
     33 C         143.4607  143.0846  155.1274 C.ar    1  UNL1        0.2000
     34 N         143.0087  142.3706  156.3667 N.ar    1  UNL1       -0.2086
     35 C         147.3487  142.2909  155.1805 C.3     1  UNL1        0.4350
     36 F         148.7955  142.2644  154.7850 F       1  UNL1       -0.1644
     37 F         147.1321  140.9847  154.4755 F       1  UNL1       -0.1644
     38 F         147.5654  143.5971  155.8854 F       1  UNL1       -0.1644
     39 C         142.8566  136.5951  155.0910 C.3     1  UNL1        0.1183
     40 C         141.6557  136.5969  154.1923 C.ar    1  UNL1        0.0712
     41 N         140.7587  137.7981  154.1415 N.ar    1  UNL1       -0.2471
     42 C         139.5577  137.7998  153.2427 C.ar    1  UNL1        0.0985
     43 C         139.2537  136.6004  152.3949 C.ar    1  UNL1        0.0203
     44 C         140.1507  135.3992  152.4457 C.ar    1  UNL1       -0.0015
     45 C         141.3516  135.3974  153.3444 C.ar    1  UNL1       -0.0069
     46 C         142.2486  134.1962  153.3952 C.3     1  UNL1        0.0323
@<TRIPOS>UNITY_ATOM_ATTR
27 1
charge -1
@<TRIPOS>BOND
     1    19    20    1
     2    20    21   ar
     3    21    22   ar
     4    22    26    1
     5    26    27   ar
     6    26    28   ar
     7    22    23   ar
     8    23    24   ar
     9    24    25   ar
    10    25    13    1
    11    13    14   ar
    12    14    15   ar
    13    15    16   ar
    14    16     1    1
    15     1     2   am
    16     2     3    2
    17     2     4   am
    18     4    29    1
    19    29    30   ar
    20    30    31   ar
    21    31    35    1
    22    35    36    1
    23    35    37    1
    24    35    38    1
    25    31    32   ar
    26    32    33   ar
    27    33    34   ar
    28     4     5    1
    29     5     6    1
    30     6     7    1
    31     7     8    1
    32     8    39    1
    33    39    40    1
    34    40    41   ar
    35    41    42   ar
    36    42    43   ar
    37    43    44   ar
    38    44    45   ar
    39    45    46    1
    40     8     9    1
    41     9    10    1
    42     5    11    1
    43    11    12    2
    44    16    17   ar
    45    17    18   ar
    46    25    20   ar
    47    18    13   ar
    48    11     1   am
    49    34    29   ar
    50    10     5    1
    51    45    40   ar
@<TRIPOS>MOLECULE
*****
 46 51 0 0 0
SMALL
GASTEIGER

@<TRIPOS>ATOM
      1 N         140.0778  142.6420  160.7384 N.am    1  UNL1       -0.1907
      2 C         140.6205  143.7817  159.9281 C.2     1  UNL1        0.3219
      3 O         141.3963  144.9503  160.4593 O.2     1  UNL1       -0.2512
      4 N         140.2510  143.5475  158.4933 N.am    1  UNL1       -0.2223
      5 C         139.4800  142.2630  158.4168 C.3     1  UNL1        0.1391
      6 C         138.7277  140.9678  158.4959 C.3     1  UNL1        0.0449
      7 C         138.1630  140.3513  157.2505 C.3     1  UNL1        0.0746
      8 N         138.3505  141.0300  155.9261 N.3     1  UNL1       -0.2676
      9 C         139.1028  142.3253  155.8470 C.3     1  UNL1        0.0746
     10 C         139.6676  142.9418  157.0924 C.3     1  UNL1        0.0449
     11 C         139.3730  141.7034  159.8044 C.2     1  UNL1        0.2529
     12 O         138.6824  140.4289  160.1902 O.2     1  UNL1       -0.2724
     13 C         140.4917  142.1286  165.1898 C.ar    1  UNL1       -0.0002
     14 C         139.2977  142.8392  164.6246 C.ar    1  UNL1        0.0013
     15 C         139.1598  143.0104  163.1408 C.ar    1  UNL1        0.0154
     16 C         140.2158  142.4708  162.2222 C.ar    1  UNL1        0.0622
     17 C         141.4097  141.7603  162.7874 C.ar    1  UNL1        0.0154
     18 C         141.5476  141.5891  164.2712 C.ar    1  UNL1        0.0013
     19 C         139.0560  139.8921  166.5817 C.3     1  UNL1        0.0310
     20 C         139.9118  140.8393  167.3695 C.ar    1  UNL1       -0.0218
     21 C         140.0498  140.6681  168.8534 C.ar    1  UNL1       -0.0031
     22 C         140.9055  141.6152  169.6413 C.ar    1  UNL1        0.0137
     23 C         141.6233  142.7335  168.9452 C.ar    1  UNL1        0.0011
     24 C         141.4854  142.9046  167.4615 C.ar    1  UNL1       -0.0003
     25 C         140.6296  141.9575  166.6736 C.ar    1  UNL1       -0.0040
     26 C         141.0435  141.4441  171.1251 C.2     1  UNL1        0.0729
     27 O         140.2222  142.2853  172.0566 O.co2   1  UNL1       -0.5446
     28 O         142.0027  140.4317  171.6773 O.co2   1  UNL1       -0.5446
     29 C         140.5925  144.4409  157.3378 C.ar    1  UNL1        0.1421
     30 C         139.7412  145.6392  157.0389 C.ar    1  UNL1        0.0579
     31 C         140.0828  146.5325  155.8834 C.ar    1  UNL1        0.1571
     32 N         141.2757  146.2276  155.0266 N.ar    1  UNL1       -0.2199
     33 C         142.1271  145.0293  155.3255 C.ar    1  UNL1        0.2000
     34 N         141.7855  144.1360  156.4810 N.ar    1  UNL1       -0.2086
     35 C         139.2314  147.7307  155.5845 C.3     1  UNL1        0.4350
     36 F         138.3800  148.9291  155.2857 F       1  UNL1       -0.1644
     37 F         139.6129  147.6407  154.1366 F       1  UNL1       -0.1644
     38 F         138.8499  147.8208  157.0324 F       1  UNL1       -0.1644
     39 C         137.7857  140.4135  154.6807 C.3     1  UNL1        0.1183
     40 C         136.7846  141.1685  153.8575 C.ar    1  UNL1        0.0712
     41 N         137.2431  142.2523  152.9274 N.ar    1  UNL1       -0.2471
     42 C         136.2419  143.0074  152.1042 C.ar    1  UNL1        0.0985
     43 C         134.7824  142.6787  152.2112 C.ar    1  UNL1        0.0203
     44 C         134.3239  141.5949  153.1413 C.ar    1  UNL1       -0.0015
     45 C         135.3250  140.8398  153.9645 C.ar    1  UNL1       -0.0069
     46 C         134.8665  139.7560  154.8946 C.3     1  UNL1        0.0323
@<TRIPOS>UNITY_ATOM_ATTR
27 1
charge -1
@<TRIPOS>BOND
     1    19    20    1
     2    20    21   ar
     3    21    22   ar
     4    22    26    1
     5    26    27   ar
     6    26    28   ar
     7    22    23   ar
     8    23    24   ar
     9    24    25   ar
    10    25    13    1
    11    13    14   ar
    12    14    15   ar
    13    15    16   ar
    14    16     1    1
    15     1     2   am
    16     2     3    2
    17     2     4   am
    18     4    29    1
    19    29    30   ar
    20    30    31   ar
    21    31    35    1
    22    35    36    1
    23    35    37    1
    24    35    38    1
    25    31    32   ar
    26    32    33   ar
    27    33    34   ar
    28     4     5    1
    29     5     6    1
    30     6     7    1
    31     7     8    1
    32     8    39    1
    33    39    40    1
    34    40    41   ar
    35    41    42   ar
    36    42    43   ar
    37    43    44   ar
    38    44    45   ar
    39    45    46    1
    40     8     9    1
    41     9    10    1
    42     5    11    1
    43    11    12    2
    44    16    17   ar
    45    17    18   ar
    46    25    20   ar
    47    18    13   ar
    48    11     1   am
    49    34    29   ar
    50    10     5    1
    51    45    40   ar
@<TRIPOS>MOLECULE
*****
 46 51 0 0 0
SMALL
GASTEIGER

@<TRIPOS>ATOM
      1 N         141.7058  143.0600  160.5970 N.am    1  UNL1       -0.1907
      2 C         142.5494  142.2376  159.6685 C.2     1  UNL1        0.3219
      3 O         143.4330  141.0913  160.0622 O.2     1  UNL1       -0.2512
      4 N         142.3542  142.7628  158.2771 N.am    1  UNL1       -0.2223
      5 C         141.3900  143.9099  158.3456 C.3     1  UNL1        0.1391
      6 C         140.4198  145.0318  158.5690 C.3     1  UNL1        0.0449
      7 C         139.9404  145.8512  157.4077 C.3     1  UNL1        0.0746
      8 N         140.4313  145.5488  156.0229 N.3     1  UNL1       -0.2676
      9 C         141.4015  144.4268  155.7995 C.3     1  UNL1        0.0746
     10 C         141.8808  143.6074  156.9608 C.3     1  UNL1        0.0449
     11 C         140.9892  144.0936  159.7793 C.2     1  UNL1        0.2529
     12 O         140.0389  145.1289  160.3035 O.2     1  UNL1       -0.2724
     13 C         141.3817  142.5213  165.0528 C.ar    1  UNL1       -0.0002
     14 C         140.4334  141.8025  164.1395 C.ar    1  UNL1        0.0013
     15 C         140.5414  141.9821  162.6542 C.ar    1  UNL1        0.0154
     16 C         141.5978  142.8804  162.0823 C.ar    1  UNL1        0.0622
     17 C         142.5460  143.5991  162.9955 C.ar    1  UNL1        0.0154
     18 C         142.4380  143.4196  164.4808 C.ar    1  UNL1        0.0013
     19 C         142.9605  140.3690  166.4223 C.3     1  UNL1        0.0310
     20 C         142.0631  141.2656  167.2228 C.ar    1  UNL1       -0.0218
     21 C         141.9550  141.0860  168.7081 C.ar    1  UNL1       -0.0031
     22 C         141.0576  141.9825  169.5087 C.ar    1  UNL1        0.0137
     23 C         140.2682  143.0587  168.8239 C.ar    1  UNL1        0.0011
     24 C         140.3763  143.2383  167.3386 C.ar    1  UNL1       -0.0003
     25 C         141.2737  142.3417  166.5381 C.ar    1  UNL1       -0.0040
     26 C         140.9496  141.8030  170.9940 C.2     1  UNL1        0.0729
     27 O         139.9239  142.5748  171.7701 O.co2   1  UNL1       -0.5446
     28 O         141.8672  140.8516  171.7031 O.co2   1  UNL1       -0.5446
     29 C         143.0083  142.2340  157.0351 C.ar    1  UNL1        0.1421
     30 C         144.3702  142.7219  156.6387 C.ar    1  UNL1        0.0579
     31 C         145.0242  142.1930  155.3968 C.ar    1  UNL1        0.1571
     32 N         144.3165  141.1761  154.5512 N.ar    1  UNL1       -0.2199
     33 C         142.9546  140.6881  154.9476 C.ar    1  UNL1        0.2000
     34 N         142.3005  141.2170  156.1895 N.ar    1  UNL1       -0.2086
     35 C         146.3861  142.6810  155.0003 C.3     1  UNL1        0.4350
     36 F         147.7480  143.1691  154.6039 F       1  UNL1       -0.1644
     37 F         147.0108  141.5227  155.7203 F       1  UNL1       -0.1644
     38 F         145.7615  143.8393  154.2805 F       1  UNL1       -0.1644
     39 C         139.9520  146.3683  154.8615 C.3     1  UNL1        0.1183
     40 C         139.5474  147.7977  155.0685 C.ar    1  UNL1        0.0712
     41 N         138.7709  148.1879  156.2912 N.ar    1  UNL1       -0.2471
     42 C         138.3663  149.6175  156.4981 C.ar    1  UNL1        0.0985
     43 C         138.7382  150.6568  155.4825 C.ar    1  UNL1        0.0203
     44 C         139.5146  150.2666  154.2598 C.ar    1  UNL1       -0.0015
     45 C         139.9192  148.8371  154.0528 C.ar    1  UNL1       -0.0069
     46 C         140.6957  148.4469  152.8302 C.3     1  UNL1        0.0323
@<TRIPOS>UNITY_ATOM_ATTR
27 1
charge -1
@<TRIPOS>BOND
     1    19    20    1
     2    20    21   ar
     3    21    22   ar
     4    22    26    1
     5    26    27   ar
     6    26    28   ar
     7    22    23   ar
     8    23    24   ar
     9    24    25   ar
    10    25    13    1
    11    13    14   ar
    12    14    15   ar
    13    15    16   ar
    14    16     1    1
    15     1     2   am
    16     2     3    2
    17     2     4   am
    18     4    29    1
    19    29    30   ar
    20    30    31   ar
    21    31    35    1
    22    35    36    1
    23    35    37    1
    24    35    38    1
    25    31    32   ar
    26    32    33   ar
    27    33    34   ar
    28     4     5    1
    29     5     6    1
    30     6     7    1
    31     7     8    1
    32     8    39    1
    33    39    40    1
    34    40    41   ar
    35    41    42   ar
    36    42    43   ar
    37    43    44   ar
    38    44    45   ar
    39    45    46    1
    40     8     9    1
    41     9    10    1
    42     5    11    1
    43    11    12    2
    44    16    17   ar
    45    17    18   ar
    46    25    20   ar
    47    18    13   ar
    48    11     1   am
    49    34    29   ar
    50    10     5    1
    51    45    40   ar
