@<TRIPOS>MOLECULE
*****
 26 29 0 0 0
SMALL
GASTEIGER

@<TRIPOS>ATOM
      1 C         140.1717  140.2781  168.4854 C.3     1  UNL1        0.0559
      2 C         140.0596  140.3539  166.9915 C.3     1  UNL1        0.2097
      3 N         139.2272  139.4578  166.1232 N.pl3   1  UNL1       -0.2169
      4 C         139.4133  139.8892  164.6987 C.2     1  UNL1        0.3362
      5 N         140.3608  141.0520  164.6866 N.2     1  UNL1       -0.0599
      6 C         140.7602  141.3392  166.1036 C.3     1  UNL1        0.2515
      7 H         138.6585  138.7165  166.4337 H       1  UNL1        0.2923
      8 C         141.3311  141.8550  167.3913 C.ar    1  UNL1        0.0297
      9 C         140.5973  142.9070  168.1690 C.ar    1  UNL1        0.0025
     10 C         141.1682  143.4227  169.4566 C.ar    1  UNL1        0.0295
     11 C         142.4729  142.8864  169.9666 C.ar    1  UNL1        0.1401
     12 F         143.0439  143.4022  171.2543 F       1  UNL1       -0.2042
     13 C         143.2068  141.8345  169.1889 C.ar    1  UNL1        0.0295
     14 C         142.6359  141.3187  167.9013 C.ar    1  UNL1        0.0025
     15 C         141.5802  142.4323  165.4850 C.ar    1  UNL1        0.0488
     16 C         143.0770  142.3353  165.4790 C.ar    1  UNL1        0.0057
     17 C         143.8971  143.4284  164.8603 C.ar    1  UNL1        0.0495
     18 C         143.2202  144.6186  164.2477 C.ar    1  UNL1        0.2223
     19 F         144.0402  145.7116  163.6291 F       1  UNL1       -0.1832
     20 N         141.7234  144.7157  164.2536 N.ar    1  UNL1       -0.2166
     21 C         140.9033  143.6225  164.8723 C.ar    1  UNL1        0.1014
     22 C         138.7657  139.2671  163.4973 C.ar    1  UNL1        0.1915
     23 C         138.7578  137.8062  163.1572 C.ar    1  UNL1        0.1361
     24 N         137.9995  137.6329  161.8747 N.ar    1  UNL1       -0.1882
     25 S         137.5386  138.9866  161.4221 S.2     1  UNL1        0.1168
     26 N         138.0121  139.9967  162.4249 N.ar    1  UNL1       -0.1825
@<TRIPOS>BOND
     1     2     1    1
     2     2     3    1
     3     3     4    1
     4     4    22    1
     5    22    23   ar
     6    23    24   ar
     7    24    25   ar
     8    25    26   ar
     9     4     5    2
    10     5     6    1
    11     6     8    1
    12     8     9   ar
    13     9    10   ar
    14    10    11   ar
    15    11    12    1
    16    11    13   ar
    17    13    14   ar
    18     6    15    1
    19    15    16   ar
    20    16    17   ar
    21    17    18   ar
    22    18    19    1
    23    18    20   ar
    24    20    21   ar
    25     6     2    1
    26    14     8   ar
    27    21    15   ar
    28    26    22   ar
    29     3     7    1
@<TRIPOS>MOLECULE
*****
 26 29 0 0 0
SMALL
GASTEIGER

@<TRIPOS>ATOM
      1 C         142.6238  139.5439  167.8661 C.3     1  UNL1        0.0559
      2 C         142.3888  139.6913  166.3919 C.3     1  UNL1        0.2097
      3 N         143.1033  138.9428  165.3060 N.pl3   1  UNL1       -0.2169
      4 C         142.5541  139.4020  163.9879 C.2     1  UNL1        0.3362
      5 N         141.5002  140.4343  164.2591 N.2     1  UNL1       -0.0599
      6 C         141.3980  140.6131  165.7449 C.3     1  UNL1        0.2515
      7 H         143.8088  138.2685  165.4356 H       1  UNL1        0.2923
      8 C         141.0746  141.0017  167.1572 C.ar    1  UNL1        0.0297
      9 C         141.8538  142.0910  167.8325 C.ar    1  UNL1        0.0025
     10 C         141.5303  142.4795  169.2448 C.ar    1  UNL1        0.0295
     11 C         140.4276  141.7786  169.9816 C.ar    1  UNL1        0.1401
     12 F         140.1041  142.1672  171.3939 F       1  UNL1       -0.2042
     13 C         139.6484  140.6893  169.3062 C.ar    1  UNL1        0.0295
     14 C         139.9719  140.3008  167.8940 C.ar    1  UNL1        0.0025
     15 C         140.3396  141.6162  165.3931 C.ar    1  UNL1        0.0488
     16 C         140.6518  143.0826  165.4376 C.ar    1  UNL1        0.0057
     17 C         139.5934  144.0858  165.0858 C.ar    1  UNL1        0.0495
     18 C         138.2228  143.6223  164.6896 C.ar    1  UNL1        0.2223
     19 F         137.1645  144.6254  164.3379 F       1  UNL1       -0.1832
     20 N         137.9107  142.1558  164.6452 N.ar    1  UNL1       -0.2166
     21 C         138.9691  141.1527  164.9969 C.ar    1  UNL1        0.1014
     22 C         142.9834  138.9145  162.6359 C.ar    1  UNL1        0.1915
     23 C         144.1519  139.4237  161.8451 C.ar    1  UNL1        0.1361
     24 N         144.2103  138.6561  160.5577 N.ar    1  UNL1       -0.1882
     25 S         143.0779  137.6724  160.5528 S.2     1  UNL1        0.1168
     26 N         142.3196  137.8321  161.8371 N.ar    1  UNL1       -0.1825
@<TRIPOS>BOND
     1     2     1    1
     2     2     3    1
     3     3     4    1
     4     4    22    1
     5    22    23   ar
     6    23    24   ar
     7    24    25   ar
     8    25    26   ar
     9     4     5    2
    10     5     6    1
    11     6     8    1
    12     8     9   ar
    13     9    10   ar
    14    10    11   ar
    15    11    12    1
    16    11    13   ar
    17    13    14   ar
    18     6    15    1
    19    15    16   ar
    20    16    17   ar
    21    17    18   ar
    22    18    19    1
    23    18    20   ar
    24    20    21   ar
    25     6     2    1
    26    14     8   ar
    27    21    15   ar
    28    26    22   ar
    29     3     7    1
@<TRIPOS>MOLECULE
*****
 26 29 0 0 0
SMALL
GASTEIGER

@<TRIPOS>ATOM
      1 C         140.8196  137.5036  164.8779 C.3     1  UNL1        0.0559
      2 C         140.7985  138.1150  163.5083 C.3     1  UNL1        0.2097
      3 N         141.4155  137.5306  162.2722 N.pl3   1  UNL1       -0.2169
      4 C         141.1550  138.4725  161.1344 C.2     1  UNL1        0.3362
      5 N         140.3771  139.6391  161.6671 N.2     1  UNL1       -0.0599
      6 C         140.1567  139.4181  163.1343 C.3     1  UNL1        0.2515
      7 H         141.9054  136.6784  162.2174 H       1  UNL1        0.2923
      8 C         139.7860  139.4720  164.5868 C.ar    1  UNL1        0.0297
      9 C         140.7221  140.0990  165.5770 C.ar    1  UNL1        0.0025
     10 C         140.3513  140.1528  167.0294 C.ar    1  UNL1        0.0295
     11 C         139.0445  139.5796  167.4917 C.ar    1  UNL1        0.1401
     12 F         138.6738  139.6335  168.9442 F       1  UNL1       -0.2042
     13 C         138.1084  138.9526  166.5014 C.ar    1  UNL1        0.0295
     14 C         138.4792  138.8988  165.0490 C.ar    1  UNL1        0.0025
     15 C         139.4375  140.7325  163.0639 C.ar    1  UNL1        0.0488
     16 C         140.1670  142.0045  163.3797 C.ar    1  UNL1        0.0057
     17 C         139.4478  143.3190  163.3094 C.ar    1  UNL1        0.0495
     18 C         137.9989  143.3615  162.9233 C.ar    1  UNL1        0.2223
     19 F         137.2797  144.6759  162.8530 F       1  UNL1       -0.1832
     20 N         137.2693  142.0895  162.6076 N.ar    1  UNL1       -0.2166
     21 C         137.9886  140.7750  162.6779 C.ar    1  UNL1        0.1014
     22 C         141.5952  138.2814  159.7132 C.ar    1  UNL1        0.1915
     23 C         142.9969  138.0099  159.2533 C.ar    1  UNL1        0.1361
     24 N         142.9790  137.8890  157.7583 N.ar    1  UNL1       -0.1882
     25 S         141.5662  138.0858  157.2942 S.2     1  UNL1        0.1168
     26 N         140.7110  138.3283  158.5024 N.ar    1  UNL1       -0.1825
@<TRIPOS>BOND
     1     2     1    1
     2     2     3    1
     3     3     4    1
     4     4    22    1
     5    22    23   ar
     6    23    24   ar
     7    24    25   ar
     8    25    26   ar
     9     4     5    2
    10     5     6    1
    11     6     8    1
    12     8     9   ar
    13     9    10   ar
    14    10    11   ar
    15    11    12    1
    16    11    13   ar
    17    13    14   ar
    18     6    15    1
    19    15    16   ar
    20    16    17   ar
    21    17    18   ar
    22    18    19    1
    23    18    20   ar
    24    20    21   ar
    25     6     2    1
    26    14     8   ar
    27    21    15   ar
    28    26    22   ar
    29     3     7    1
@<TRIPOS>MOLECULE
*****
 26 29 0 0 0
SMALL
GASTEIGER

@<TRIPOS>ATOM
      1 C         138.8621  138.7306  164.8556 C.3     1  UNL1        0.0559
      2 C         139.7784  139.3864  165.8457 C.3     1  UNL1        0.2097
      3 N         139.4843  139.6220  167.2976 N.pl3   1  UNL1       -0.2169
      4 C         140.6737  140.3030  167.9069 C.2     1  UNL1        0.3362
      5 N         141.7031  140.4883  166.8317 N.2     1  UNL1       -0.0599
      6 C         141.1497  139.9218  165.5578 C.3     1  UNL1        0.2515
      7 H         138.6559  139.3734  167.7680 H       1  UNL1        0.2923
      8 C         140.8709  139.4465  164.1626 C.ar    1  UNL1        0.0297
      9 C         140.2505  140.3771  163.1632 C.ar    1  UNL1        0.0025
     10 C         139.9717  139.9018  161.7681 C.ar    1  UNL1        0.0295
     11 C         140.3133  138.4958  161.3725 C.ar    1  UNL1        0.1401
     12 F         140.0345  138.0205  159.9773 F       1  UNL1       -0.2042
     13 C         140.9337  137.5652  162.3719 C.ar    1  UNL1        0.0295
     14 C         141.2125  138.0405  163.7670 C.ar    1  UNL1        0.0025
     15 C         142.4627  140.3578  164.9782 C.ar    1  UNL1        0.0488
     16 C         143.5981  139.3829  164.8761 C.ar    1  UNL1        0.0057
     17 C         144.9112  139.8189  164.2965 C.ar    1  UNL1        0.0495
     18 C         145.0888  141.2297  163.8190 C.ar    1  UNL1        0.2223
     19 F         146.4018  141.6656  163.2395 F       1  UNL1       -0.1832
     20 N         143.9534  142.2046  163.9211 N.ar    1  UNL1       -0.2166
     21 C         142.6403  141.7687  164.5007 C.ar    1  UNL1        0.1014
     22 C         140.8100  140.7246  169.3400 C.ar    1  UNL1        0.1915
     23 C         140.0889  140.1215  170.5089 C.ar    1  UNL1        0.1361
     24 N         140.5245  140.8476  171.7471 N.ar    1  UNL1       -0.1882
     25 S         141.5148  141.8994  171.3434 S.2     1  UNL1        0.1168
     26 N         141.6913  141.8234  169.8558 N.ar    1  UNL1       -0.1825
@<TRIPOS>BOND
     1     2     1    1
     2     2     3    1
     3     3     4    1
     4     4    22    1
     5    22    23   ar
     6    23    24   ar
     7    24    25   ar
     8    25    26   ar
     9     4     5    2
    10     5     6    1
    11     6     8    1
    12     8     9   ar
    13     9    10   ar
    14    10    11   ar
    15    11    12    1
    16    11    13   ar
    17    13    14   ar
    18     6    15    1
    19    15    16   ar
    20    16    17   ar
    21    17    18   ar
    22    18    19    1
    23    18    20   ar
    24    20    21   ar
    25     6     2    1
    26    14     8   ar
    27    21    15   ar
    28    26    22   ar
    29     3     7    1
@<TRIPOS>MOLECULE
*****
 26 29 0 0 0
SMALL
GASTEIGER

@<TRIPOS>ATOM
      1 C         138.4751  138.6567  165.2387 C.3     1  UNL1        0.0559
      2 C         139.0992  139.6887  166.1307 C.3     1  UNL1        0.2097
      3 N         139.3328  139.5536  167.6062 N.pl3   1  UNL1       -0.2169
      4 C         139.9772  140.8183  168.0912 C.2     1  UNL1        0.3362
      5 N         140.1420  141.7350  166.9154 N.2     1  UNL1       -0.0599
      6 C         139.5993  141.0368  165.7037 C.3     1  UNL1        0.2515
      7 H         139.1034  138.7721  168.1593 H       1  UNL1        0.2923
      8 C         139.1412  140.6015  164.3433 C.ar    1  UNL1        0.0297
      9 C         137.8080  141.0494  163.8220 C.ar    1  UNL1        0.0025
     10 C         137.3499  140.6141  162.4616 C.ar    1  UNL1        0.0295
     11 C         138.2251  139.7309  161.6226 C.ar    1  UNL1        0.1401
     12 F         137.7670  139.2955  160.2622 F       1  UNL1       -0.2042
     13 C         139.5583  139.2829  162.1439 C.ar    1  UNL1        0.0295
     14 C         140.0164  139.7183  163.5043 C.ar    1  UNL1        0.0025
     15 C         140.0036  142.2940  164.9924 C.ar    1  UNL1        0.0488
     16 C         139.1132  143.5003  165.0368 C.ar    1  UNL1        0.0057
     17 C         139.5175  144.7576  164.3254 C.ar    1  UNL1        0.0495
     18 C         140.8122  144.8084  163.5696 C.ar    1  UNL1        0.2223
     19 F         141.2164  146.0656  162.8583 F       1  UNL1       -0.1832
     20 N         141.7026  143.6021  163.5252 N.ar    1  UNL1       -0.2166
     21 C         141.2983  142.3448  164.2366 C.ar    1  UNL1        0.1014
     22 C         140.3853  141.1143  169.5039 C.ar    1  UNL1        0.1915
     23 C         139.8242  142.1990  170.3748 C.ar    1  UNL1        0.1361
     24 N         140.5183  142.1327  171.7030 N.ar    1  UNL1       -0.1882
     25 S         141.5084  141.0070  171.6528 S.2     1  UNL1        0.1168
     26 N         141.4262  140.3776  170.2938 N.ar    1  UNL1       -0.1825
@<TRIPOS>BOND
     1     2     1    1
     2     2     3    1
     3     3     4    1
     4     4    22    1
     5    22    23   ar
     6    23    24   ar
     7    24    25   ar
     8    25    26   ar
     9     4     5    2
    10     5     6    1
    11     6     8    1
    12     8     9   ar
    13     9    10   ar
    14    10    11   ar
    15    11    12    1
    16    11    13   ar
    17    13    14   ar
    18     6    15    1
    19    15    16   ar
    20    16    17   ar
    21    17    18   ar
    22    18    19    1
    23    18    20   ar
    24    20    21   ar
    25     6     2    1
    26    14     8   ar
    27    21    15   ar
    28    26    22   ar
    29     3     7    1
@<TRIPOS>MOLECULE
*****
 26 29 0 0 0
SMALL
GASTEIGER

@<TRIPOS>ATOM
      1 C         138.1256  139.4999  162.5175 C.3     1  UNL1        0.0559
      2 C         139.0544  140.6638  162.3363 C.3     1  UNL1        0.2097
      3 N         139.1655  141.5206  161.1101 N.pl3   1  UNL1       -0.2169
      4 C         140.2148  142.5615  161.3655 C.2     1  UNL1        0.3362
      5 N         140.7523  142.3481  162.7495 N.2     1  UNL1       -0.0599
      6 C         140.0351  141.1752  163.3495 C.3     1  UNL1        0.2515
      7 H         138.6416  141.4178  160.2829 H       1  UNL1        0.2923
      8 C         139.4996  140.0605  164.1985 C.ar    1  UNL1        0.0297
      9 C         138.4000  140.3292  165.1827 C.ar    1  UNL1        0.0025
     10 C         137.8645  139.2145  166.0317 C.ar    1  UNL1        0.0295
     11 C         138.4285  137.8312  165.8963 C.ar    1  UNL1        0.1401
     12 F         137.8929  136.7165  166.7453 F       1  UNL1       -0.2042
     13 C         139.5280  137.5625  164.9120 C.ar    1  UNL1        0.0295
     14 C         140.0636  138.6772  164.0631 C.ar    1  UNL1        0.0025
     15 C         140.9039  141.4536  164.5402 C.ar    1  UNL1        0.0488
     16 C         140.3750  142.2740  165.6791 C.ar    1  UNL1        0.0057
     17 C         141.2437  142.5524  166.8698 C.ar    1  UNL1        0.0495
     18 C         142.6414  142.0104  166.9216 C.ar    1  UNL1        0.2223
     19 F         143.5101  142.2888  168.1123 F       1  UNL1       -0.1832
     20 N         143.1704  141.1900  165.7827 N.ar    1  UNL1       -0.2166
     21 C         142.3016  140.9116  164.5919 C.ar    1  UNL1        0.1014
     22 C         140.6503  143.6285  160.4054 C.ar    1  UNL1        0.1915
     23 C         142.0674  143.9864  160.0684 C.ar    1  UNL1        0.1361
     24 N         142.0380  145.1041  159.0684 N.ar    1  UNL1       -0.1882
     25 S         140.6027  145.4370  158.7874 S.2     1  UNL1        0.1168
     26 N         139.7450  144.5251  159.6137 N.ar    1  UNL1       -0.1825
@<TRIPOS>BOND
     1     2     1    1
     2     2     3    1
     3     3     4    1
     4     4    22    1
     5    22    23   ar
     6    23    24   ar
     7    24    25   ar
     8    25    26   ar
     9     4     5    2
    10     5     6    1
    11     6     8    1
    12     8     9   ar
    13     9    10   ar
    14    10    11   ar
    15    11    12    1
    16    11    13   ar
    17    13    14   ar
    18     6    15    1
    19    15    16   ar
    20    16    17   ar
    21    17    18   ar
    22    18    19    1
    23    18    20   ar
    24    20    21   ar
    25     6     2    1
    26    14     8   ar
    27    21    15   ar
    28    26    22   ar
    29     3     7    1
@<TRIPOS>MOLECULE
*****
 26 29 0 0 0
SMALL
GASTEIGER

@<TRIPOS>ATOM
      1 C         137.5986  140.7226  163.2196 C.3     1  UNL1        0.0559
      2 C         138.8142  141.3409  162.5949 C.3     1  UNL1        0.2097
      3 N         138.8176  142.3982  161.5310 N.pl3   1  UNL1       -0.2169
      4 C         140.2452  142.7212  161.2031 C.2     1  UNL1        0.3362
      5 N         141.1241  141.8635  162.0643 N.2     1  UNL1       -0.0599
      6 C         140.2397  141.0104  162.9245 C.3     1  UNL1        0.2515
      7 H         138.0225  142.8082  161.1200 H       1  UNL1        0.2923
      8 C         139.6265  140.0460  163.8962 C.ar    1  UNL1        0.0297
      9 C         139.1949  140.5201  165.2522 C.ar    1  UNL1        0.0025
     10 C         138.5817  139.5558  166.2238 C.ar    1  UNL1        0.0295
     11 C         138.4002  138.1173  165.8393 C.ar    1  UNL1        0.1401
     12 F         137.7870  137.1529  166.8110 F       1  UNL1       -0.2042
     13 C         138.8319  137.6432  164.4833 C.ar    1  UNL1        0.0295
     14 C         139.4450  138.6075  163.5117 C.ar    1  UNL1        0.0025
     15 C         141.5370  140.4783  163.4573 C.ar    1  UNL1        0.0488
     16 C         142.0511  140.9478  164.7859 C.ar    1  UNL1        0.0057
     17 C         143.3485  140.4157  165.3187 C.ar    1  UNL1        0.0495
     18 C         144.1317  139.4141  164.5229 C.ar    1  UNL1        0.2223
     19 F         145.4290  138.8820  165.0556 F       1  UNL1       -0.1832
     20 N         143.6176  138.9446  163.1942 N.ar    1  UNL1       -0.2166
     21 C         142.3203  139.4767  162.6614 C.ar    1  UNL1        0.1014
     22 C         140.7120  143.7256  160.1915 C.ar    1  UNL1        0.1915
     23 C         142.1237  143.9112  159.7198 C.ar    1  UNL1        0.1361
     24 N         142.1332  145.0210  158.7107 N.ar    1  UNL1       -0.1882
     25 S         140.7273  145.5213  158.5587 S.2     1  UNL1        0.1168
     26 N         139.8489  144.7207  159.4739 N.ar    1  UNL1       -0.1825
@<TRIPOS>BOND
     1     2     1    1
     2     2     3    1
     3     3     4    1
     4     4    22    1
     5    22    23   ar
     6    23    24   ar
     7    24    25   ar
     8    25    26   ar
     9     4     5    2
    10     5     6    1
    11     6     8    1
    12     8     9   ar
    13     9    10   ar
    14    10    11   ar
    15    11    12    1
    16    11    13   ar
    17    13    14   ar
    18     6    15    1
    19    15    16   ar
    20    16    17   ar
    21    17    18   ar
    22    18    19    1
    23    18    20   ar
    24    20    21   ar
    25     6     2    1
    26    14     8   ar
    27    21    15   ar
    28    26    22   ar
    29     3     7    1
@<TRIPOS>MOLECULE
*****
 26 29 0 0 0
SMALL
GASTEIGER

@<TRIPOS>ATOM
      1 C         143.0703  142.4399  167.9900 C.3     1  UNL1        0.0559
      2 C         142.8480  142.0853  166.5495 C.3     1  UNL1        0.2097
      3 N         143.5316  142.7133  165.3712 N.pl3   1  UNL1       -0.2169
      4 C         143.0091  142.0566  164.1280 C.2     1  UNL1        0.3362
      5 N         142.0026  141.0227  164.5379 N.2     1  UNL1       -0.0599
      6 C         141.9030  141.0405  166.0344 C.3     1  UNL1        0.2515
      7 H         144.2050  143.4306  165.4075 H       1  UNL1        0.2923
      8 C         141.5922  140.8306  167.4869 C.ar    1  UNL1        0.0297
      9 C         140.5958  141.7149  168.1760 C.ar    1  UNL1        0.0025
     10 C         140.2851  141.5050  169.6284 C.ar    1  UNL1        0.0295
     11 C         140.9708  140.4107  170.3915 C.ar    1  UNL1        0.1401
     12 F         140.6601  140.2008  171.8440 F       1  UNL1       -0.2042
     13 C         141.9673  139.5264  169.7023 C.ar    1  UNL1        0.0295
     14 C         142.2780  139.7363  168.2500 C.ar    1  UNL1        0.0025
     15 C         140.8931  139.9518  165.8230 C.ar    1  UNL1        0.0488
     16 C         139.4617  140.1702  166.2146 C.ar    1  UNL1        0.0057
     17 C         138.4516  139.0815  166.0032 C.ar    1  UNL1        0.0495
     18 C         138.8731  137.7743  165.4002 C.ar    1  UNL1        0.2223
     19 F         137.8631  136.6857  165.1888 F       1  UNL1       -0.1832
     20 N         140.3045  137.5558  165.0086 N.ar    1  UNL1       -0.2166
     21 C         141.3145  138.6445  165.2200 C.ar    1  UNL1        0.1014
     22 C         143.4208  142.3774  162.7218 C.ar    1  UNL1        0.1915
     23 C         142.8949  143.5055  161.8847 C.ar    1  UNL1        0.1361
     24 N         143.5799  143.4518  160.5513 N.ar    1  UNL1       -0.1882
     25 S         144.5291  142.2905  160.5643 S.2     1  UNL1        0.1168
     26 N         144.4309  141.6265  161.9057 N.ar    1  UNL1       -0.1825
@<TRIPOS>BOND
     1     2     1    1
     2     2     3    1
     3     3     4    1
     4     4    22    1
     5    22    23   ar
     6    23    24   ar
     7    24    25   ar
     8    25    26   ar
     9     4     5    2
    10     5     6    1
    11     6     8    1
    12     8     9   ar
    13     9    10   ar
    14    10    11   ar
    15    11    12    1
    16    11    13   ar
    17    13    14   ar
    18     6    15    1
    19    15    16   ar
    20    16    17   ar
    21    17    18   ar
    22    18    19    1
    23    18    20   ar
    24    20    21   ar
    25     6     2    1
    26    14     8   ar
    27    21    15   ar
    28    26    22   ar
    29     3     7    1
@<TRIPOS>MOLECULE
*****
 26 29 0 0 0
SMALL
GASTEIGER

@<TRIPOS>ATOM
      1 C         141.5397  137.5122  164.7266 C.3     1  UNL1        0.0559
      2 C         142.0088  138.2709  163.5207 C.3     1  UNL1        0.2097
      3 N         142.0948  137.7369  162.1215 N.pl3   1  UNL1       -0.2169
      4 C         142.6135  138.8327  161.2383 C.2     1  UNL1        0.3362
      5 N         142.8481  140.0439  162.0915 N.2     1  UNL1       -0.0599
      6 C         142.4744  139.6966  163.5021 C.3     1  UNL1        0.2515
      7 H         141.8532  136.8270  161.8335 H       1  UNL1        0.2923
      8 C         142.1854  139.6452  164.9731 C.ar    1  UNL1        0.0297
      9 C         143.2308  139.1458  165.9258 C.ar    1  UNL1        0.0025
     10 C         142.9418  139.0944  167.3968 C.ar    1  UNL1        0.0295
     11 C         141.6074  139.5425  167.9151 C.ar    1  UNL1        0.1401
     12 F         141.3184  139.4911  169.3861 F       1  UNL1       -0.2042
     13 C         140.5620  140.0420  166.9624 C.ar    1  UNL1        0.0295
     14 C         140.8510  140.0934  165.4914 C.ar    1  UNL1        0.0025
     15 C         142.8796  141.1117  163.7910 C.ar    1  UNL1        0.0488
     16 C         144.2305  141.4005  164.3754 C.ar    1  UNL1        0.0057
     17 C         144.6357  142.8156  164.6644 C.ar    1  UNL1        0.0495
     18 C         143.6899  143.9418  164.3690 C.ar    1  UNL1        0.2223
     19 F         144.0951  145.3568  164.6580 F       1  UNL1       -0.1832
     20 N         142.3390  143.6529  163.7847 N.ar    1  UNL1       -0.2166
     21 C         141.9337  142.2378  163.4957 C.ar    1  UNL1        0.1014
     22 C         142.8551  138.7346  159.7612 C.ar    1  UNL1        0.1915
     23 C         143.6227  139.7162  158.9262 C.ar    1  UNL1        0.1361
     24 N         143.6136  139.2258  157.5086 N.ar    1  UNL1       -0.1882
     25 S         142.8404  137.9411  157.4675 S.2     1  UNL1        0.1168
     26 N         142.3716  137.6375  158.8596 N.ar    1  UNL1       -0.1825
@<TRIPOS>BOND
     1     2     1    1
     2     2     3    1
     3     3     4    1
     4     4    22    1
     5    22    23   ar
     6    23    24   ar
     7    24    25   ar
     8    25    26   ar
     9     4     5    2
    10     5     6    1
    11     6     8    1
    12     8     9   ar
    13     9    10   ar
    14    10    11   ar
    15    11    12    1
    16    11    13   ar
    17    13    14   ar
    18     6    15    1
    19    15    16   ar
    20    16    17   ar
    21    17    18   ar
    22    18    19    1
    23    18    20   ar
    24    20    21   ar
    25     6     2    1
    26    14     8   ar
    27    21    15   ar
    28    26    22   ar
    29     3     7    1
