@<TRIPOS>MOLECULE
*****
 26 29 0 0 0
SMALL
GASTEIGER

@<TRIPOS>ATOM
      1 N         137.9940  140.1447  160.2617 N.pl3   1  UNL1       -0.3380
      2 C         138.3480  139.9090  161.7002 C.2     1  UNL1        0.1482
      3 N         138.7242  141.0649  162.5790 N.2     1  UNL1       -0.2484
      4 C         139.0782  140.8292  164.0175 C.3     1  UNL1        0.1352
      5 C         139.4545  141.9851  164.8964 C.3     1  UNL1        0.1692
      6 O         139.8085  141.7494  166.3348 O.3     1  UNL1       -0.3446
      7 C         139.7863  140.3578  166.8944 C.3     1  UNL1        0.1910
      8 C         139.4101  139.2019  166.0155 C.3     1  UNL1        0.0423
      9 C         139.0561  139.4376  164.5770 C.3     1  UNL1        0.0412
     10 C         138.6799  138.2818  163.6981 C.3     1  UNL1        0.0672
     11 S         138.3258  138.5175  162.2597 S.3     1  UNL1       -0.0807
     12 H         138.0085  141.0581  159.8945 H       1  UNL1        0.1442
     13 H         137.7470  139.3861  159.6849 H       1  UNL1        0.1442
     14 C         139.1004  142.2208  163.4580 C.ar    1  UNL1        0.0278
     15 C         137.8796  143.0870  163.5533 C.ar    1  UNL1        0.0021
     16 C         137.9018  144.4786  162.9938 C.ar    1  UNL1        0.0295
     17 C         139.1448  145.0039  162.3389 C.ar    1  UNL1        0.1424
     18 F         139.1671  146.3955  161.7794 F       1  UNL1       -0.2041
     19 C         140.3657  144.1376  162.2436 C.ar    1  UNL1        0.0590
     20 C         140.3435  142.7461  162.8031 C.ar    1  UNL1        0.1402
     21 F         141.5644  141.8798  162.7078 F       1  UNL1       -0.2044
     22 C         140.1404  140.1221  168.3328 C.ar    1  UNL1        0.2331
     23 N         139.1789  140.0916  169.4839 N.ar    1  UNL1       -0.2083
     24 C         139.9624  139.8262  170.7352 C.ar    1  UNL1        0.1424
     25 C         141.4079  139.6925  170.3575 C.ar    1  UNL1        0.2019
     26 O         141.5179  139.8754  168.8728 O.2     1  UNL1       -0.4327
@<TRIPOS>BOND
     1     1     2    1
     2     2     3    2
     3     3     4    1
     4     4    14    1
     5    14    15   ar
     6    15    16   ar
     7    16    17   ar
     8    17    18    1
     9    17    19   ar
    10    19    20   ar
    11    20    21    1
    12     4     5    1
    13     5     6    1
    14     6     7    1
    15     7    22    1
    16    22    23   ar
    17    23    24   ar
    18    24    25   ar
    19    25    26   ar
    20     7     8    1
    21     9     8    1
    22     9    10    1
    23    10    11    1
    24    11     2    1
    25     9     4    1
    26    20    14   ar
    27    26    22   ar
    28     1    12    1
    29     1    13    1
@<TRIPOS>MOLECULE
*****
 26 29 0 0 0
SMALL
GASTEIGER

@<TRIPOS>ATOM
      1 N         143.7233  138.0449  167.3158 N.pl3   1  UNL1       -0.3380
      2 C         143.2787  139.0605  166.3054 C.2     1  UNL1        0.1482
      3 N         142.4949  140.2617  166.7442 N.2     1  UNL1       -0.2484
      4 C         142.0503  141.2772  165.7338 C.3     1  UNL1        0.1352
      5 C         141.2664  142.4785  166.1727 C.3     1  UNL1        0.1692
      6 O         140.8217  143.4940  165.1623 O.3     1  UNL1       -0.3446
      7 C         141.1610  143.3083  163.7129 C.3     1  UNL1        0.1910
      8 C         141.9448  142.1071  163.2741 C.3     1  UNL1        0.0423
      9 C         142.3895  141.0916  164.2845 C.3     1  UNL1        0.0412
     10 C         143.1733  139.8903  163.8457 C.3     1  UNL1        0.0672
     11 S         143.6179  138.8748  164.8561 S.3     1  UNL1       -0.0807
     12 H         143.5007  138.1668  168.2670 H       1  UNL1        0.1442
     13 H         144.2378  137.2565  167.0278 H       1  UNL1        0.1442
     14 C         141.7110  141.4629  167.1831 C.ar    1  UNL1        0.0278
     15 C         140.4391  140.8905  167.7350 C.ar    1  UNL1        0.0021
     16 C         140.0998  141.0762  169.1843 C.ar    1  UNL1        0.0295
     17 C         141.0325  141.8344  170.0817 C.ar    1  UNL1        0.1424
     18 F         140.6933  142.0201  171.5310 F       1  UNL1       -0.2041
     19 C         142.3045  142.4068  169.5298 C.ar    1  UNL1        0.0590
     20 C         142.6437  142.2211  168.0805 C.ar    1  UNL1        0.1402
     21 F         143.9156  142.7935  167.5286 F       1  UNL1       -0.2044
     22 C         140.7164  144.3239  162.7025 C.ar    1  UNL1        0.2331
     23 N         141.0678  144.3291  161.2442 N.ar    1  UNL1       -0.2083
     24 C         140.4109  145.5210  160.6134 C.ar    1  UNL1        0.1424
     25 C         139.6535  146.2524  161.6818 C.ar    1  UNL1        0.2019
     26 O         139.8423  145.5125  162.9729 O.2     1  UNL1       -0.4327
@<TRIPOS>BOND
     1     1     2    1
     2     2     3    2
     3     3     4    1
     4     4    14    1
     5    14    15   ar
     6    15    16   ar
     7    16    17   ar
     8    17    18    1
     9    17    19   ar
    10    19    20   ar
    11    20    21    1
    12     4     5    1
    13     5     6    1
    14     6     7    1
    15     7    22    1
    16    22    23   ar
    17    23    24   ar
    18    24    25   ar
    19    25    26   ar
    20     7     8    1
    21     9     8    1
    22     9    10    1
    23    10    11    1
    24    11     2    1
    25     9     4    1
    26    20    14   ar
    27    26    22   ar
    28     1    12    1
    29     1    13    1
@<TRIPOS>MOLECULE
*****
 26 29 0 0 0
SMALL
GASTEIGER

@<TRIPOS>ATOM
      1 N         139.5358  145.1771  161.6758 N.pl3   1  UNL1       -0.3380
      2 C         139.7727  144.5690  163.0264 C.2     1  UNL1        0.1482
      3 N         141.0427  143.8188  163.2989 N.2     1  UNL1       -0.2484
      4 C         141.2796  143.2108  164.6495 C.3     1  UNL1        0.1352
      5 C         142.5496  142.4605  164.9219 C.3     1  UNL1        0.1692
      6 O         142.7865  141.8525  166.2726 O.3     1  UNL1       -0.3446
      7 C         141.7534  141.9947  167.3508 C.3     1  UNL1        0.1910
      8 C         140.4834  142.7449  167.0783 C.3     1  UNL1        0.0423
      9 C         140.2465  143.3530  165.7277 C.3     1  UNL1        0.0412
     10 C         138.9765  144.1032  165.4552 C.3     1  UNL1        0.0672
     11 S         138.7396  144.7112  164.1046 S.3     1  UNL1       -0.0807
     12 H         140.2139  145.0837  160.9682 H       1  UNL1        0.1442
     13 H         138.7023  145.6695  161.4970 H       1  UNL1        0.1442
     14 C         142.3127  143.0685  163.5713 C.ar    1  UNL1        0.0278
     15 C         142.2752  141.8873  162.6477 C.ar    1  UNL1        0.0021
     16 C         143.3083  141.7450  161.5695 C.ar    1  UNL1        0.0295
     17 C         144.3790  142.7841  161.4150 C.ar    1  UNL1        0.1424
     18 F         145.4122  142.6420  160.3369 F       1  UNL1       -0.2041
     19 C         144.4166  143.9655  162.3387 C.ar    1  UNL1        0.0590
     20 C         143.3834  144.1076  163.4168 C.ar    1  UNL1        0.1402
     21 F         143.4210  145.2890  164.3405 F       1  UNL1       -0.2044
     22 C         141.9902  141.3867  168.7014 C.ar    1  UNL1        0.2331
     23 N         142.9517  140.2782  169.0129 N.ar    1  UNL1       -0.2083
     24 C         142.8629  139.9868  170.4817 C.ar    1  UNL1        0.1424
     25 C         141.8467  140.9151  171.0779 C.ar    1  UNL1        0.2019
     26 O         141.3073  141.7803  169.9776 O.2     1  UNL1       -0.4327
@<TRIPOS>BOND
     1     1     2    1
     2     2     3    2
     3     3     4    1
     4     4    14    1
     5    14    15   ar
     6    15    16   ar
     7    16    17   ar
     8    17    18    1
     9    17    19   ar
    10    19    20   ar
    11    20    21    1
    12     4     5    1
    13     5     6    1
    14     6     7    1
    15     7    22    1
    16    22    23   ar
    17    23    24   ar
    18    24    25   ar
    19    25    26   ar
    20     7     8    1
    21     9     8    1
    22     9    10    1
    23    10    11    1
    24    11     2    1
    25     9     4    1
    26    20    14   ar
    27    26    22   ar
    28     1    12    1
    29     1    13    1
@<TRIPOS>MOLECULE
*****
 26 29 0 0 0
SMALL
GASTEIGER

@<TRIPOS>ATOM
      1 N         143.7300  137.9907  167.2293 N.pl3   1  UNL1       -0.3380
      2 C         143.2717  139.0105  166.2293 C.2     1  UNL1        0.1482
      3 N         142.5667  140.2509  166.6924 N.2     1  UNL1       -0.2484
      4 C         142.1084  141.2707  165.6924 C.3     1  UNL1        0.1352
      5 C         141.4034  142.5111  166.1554 C.3     1  UNL1        0.1692
      6 O         140.9451  143.5309  165.1554 O.3     1  UNL1       -0.3446
      7 C         141.1918  143.3102  163.6924 C.3     1  UNL1        0.1910
      8 C         141.8967  142.0698  163.2293 C.3     1  UNL1        0.0423
      9 C         142.3551  141.0501  164.2293 C.3     1  UNL1        0.0412
     10 C         143.0600  139.8097  163.7663 C.3     1  UNL1        0.0672
     11 S         143.5184  138.7899  164.7663 S.3     1  UNL1       -0.0807
     12 H         143.5682  138.1355  168.1896 H       1  UNL1        0.1442
     13 H         144.1928  137.1766  166.9254 H       1  UNL1        0.1442
     14 C         141.8617  141.4913  167.1554 C.ar    1  UNL1        0.0278
     15 C         142.9019  142.1686  167.9976 C.ar    1  UNL1        0.0021
     16 C         142.6552  142.3893  169.4607 C.ar    1  UNL1        0.0295
     17 C         141.3683  141.9326  170.0815 C.ar    1  UNL1        0.1424
     18 F         141.1216  142.1532  171.5445 F       1  UNL1       -0.2041
     19 C         140.3282  141.2553  169.2393 C.ar    1  UNL1        0.0590
     20 C         140.5749  141.0346  167.7763 C.ar    1  UNL1        0.1402
     21 F         139.5347  140.3573  166.9340 F       1  UNL1       -0.2044
     22 C         140.7334  144.3300  162.6924 C.ar    1  UNL1        0.2331
     23 N         141.0687  144.3439  161.2303 N.ar    1  UNL1       -0.2083
     24 C         140.4018  145.5374  160.6132 C.ar    1  UNL1        0.1424
     25 C         139.6544  146.2611  161.6938 C.ar    1  UNL1        0.2019
     26 O         139.8594  145.5149  162.9788 O.2     1  UNL1       -0.4327
@<TRIPOS>BOND
     1     1     2    1
     2     2     3    2
     3     3     4    1
     4     4    14    1
     5    14    15   ar
     6    15    16   ar
     7    16    17   ar
     8    17    18    1
     9    17    19   ar
    10    19    20   ar
    11    20    21    1
    12     4     5    1
    13     5     6    1
    14     6     7    1
    15     7    22    1
    16    22    23   ar
    17    23    24   ar
    18    24    25   ar
    19    25    26   ar
    20     7     8    1
    21     9     8    1
    22     9    10    1
    23    10    11    1
    24    11     2    1
    25     9     4    1
    26    20    14   ar
    27    26    22   ar
    28     1    12    1
    29     1    13    1
@<TRIPOS>MOLECULE
*****
 26 29 0 0 0
SMALL
GASTEIGER

@<TRIPOS>ATOM
      1 N         143.4138  137.7975  161.3520 N.pl3   1  UNL1       -0.3380
      2 C         143.2921  138.6241  162.5977 C.2     1  UNL1        0.1482
      3 N         141.9366  138.9935  163.1233 N.2     1  UNL1       -0.2484
      4 C         141.8149  139.8201  164.3690 C.3     1  UNL1        0.1352
      5 C         140.4593  140.1894  164.8946 C.3     1  UNL1        0.1692
      6 O         140.3376  141.0160  166.1403 O.3     1  UNL1       -0.3446
      7 C         141.5715  141.4733  166.8605 C.3     1  UNL1        0.1910
      8 C         142.9269  141.1040  166.3350 C.3     1  UNL1        0.0423
      9 C         143.0486  140.2774  165.0892 C.3     1  UNL1        0.0412
     10 C         144.4041  139.9080  164.5636 C.3     1  UNL1        0.0672
     11 S         144.5258  139.0814  163.3179 S.3     1  UNL1       -0.0807
     12 H         142.6040  137.4974  160.8793 H       1  UNL1        0.1442
     13 H         144.3034  137.5551  161.0070 H       1  UNL1        0.1442
     14 C         140.5810  139.3628  163.6488 C.ar    1  UNL1        0.0278
     15 C         139.9338  140.2534  162.6300 C.ar    1  UNL1        0.0021
     16 C         138.7000  139.7961  161.9098 C.ar    1  UNL1        0.0295
     17 C         138.1134  138.4482  162.2085 C.ar    1  UNL1        0.1424
     18 F         136.8796  137.9909  161.4884 F       1  UNL1       -0.2041
     19 C         138.7607  137.5577  163.2274 C.ar    1  UNL1        0.0590
     20 C         139.9944  138.0150  163.9475 C.ar    1  UNL1        0.1402
     21 F         140.6417  137.1244  164.9664 F       1  UNL1       -0.2044
     22 C         141.4498  142.2999  168.1063 C.ar    1  UNL1        0.2331
     23 N         142.4727  142.4044  169.1985 N.ar    1  UNL1       -0.2083
     24 C         141.9388  143.3363  170.2458 C.ar    1  UNL1        0.1424
     25 C         140.5861  143.8077  169.8009 C.ar    1  UNL1        0.2019
     26 O         140.2839  143.1672  168.4786 O.2     1  UNL1       -0.4327
@<TRIPOS>BOND
     1     1     2    1
     2     2     3    2
     3     3     4    1
     4     4    14    1
     5    14    15   ar
     6    15    16   ar
     7    16    17   ar
     8    17    18    1
     9    17    19   ar
    10    19    20   ar
    11    20    21    1
    12     4     5    1
    13     5     6    1
    14     6     7    1
    15     7    22    1
    16    22    23   ar
    17    23    24   ar
    18    24    25   ar
    19    25    26   ar
    20     7     8    1
    21     9     8    1
    22     9    10    1
    23    10    11    1
    24    11     2    1
    25     9     4    1
    26    20    14   ar
    27    26    22   ar
    28     1    12    1
    29     1    13    1
@<TRIPOS>MOLECULE
*****
 26 29 0 0 0
SMALL
GASTEIGER

@<TRIPOS>ATOM
      1 N         138.2271  140.2608  160.7542 N.pl3   1  UNL1       -0.3380
      2 C         138.5777  140.1068  162.2045 C.2     1  UNL1        0.1482
      3 N         139.0080  141.3015  163.0030 N.2     1  UNL1       -0.2484
      4 C         139.3586  141.1476  164.4533 C.3     1  UNL1        0.1352
      5 C         139.7890  142.3423  165.2517 C.3     1  UNL1        0.1692
      6 O         140.1396  142.1884  166.7020 O.3     1  UNL1       -0.3446
      7 C         140.0599  140.8397  167.3539 C.3     1  UNL1        0.1910
      8 C         139.6296  139.6451  166.5554 C.3     1  UNL1        0.0423
      9 C         139.2789  139.7990  165.1051 C.3     1  UNL1        0.0412
     10 C         138.8486  138.6043  164.3066 C.3     1  UNL1        0.0672
     11 S         138.4980  138.7583  162.8563 S.3     1  UNL1       -0.0807
     12 H         138.2794  141.1459  160.3264 H       1  UNL1        0.1442
     13 H         137.9446  139.4766  160.2301 H       1  UNL1        0.1442
     14 C         139.4383  142.4962  163.8014 C.ar    1  UNL1        0.0278
     15 C         140.7099  142.9343  163.1373 C.ar    1  UNL1        0.0021
     16 C         140.7896  144.2830  162.4855 C.ar    1  UNL1        0.0295
     17 C         139.5977  145.1935  162.4978 C.ar    1  UNL1        0.1424
     18 F         139.6774  146.5421  161.8460 F       1  UNL1       -0.2041
     19 C         138.3261  144.7554  163.1620 C.ar    1  UNL1        0.0590
     20 C         138.2464  143.4068  163.8138 C.ar    1  UNL1        0.1402
     21 F         136.9747  142.9687  164.4779 F       1  UNL1       -0.2044
     22 C         140.4105  140.6858  168.8042 C.ar    1  UNL1        0.2331
     23 N         139.6473  139.8825  169.8153 N.ar    1  UNL1       -0.2083
     24 C         140.3510  140.0084  171.1340 C.ar    1  UNL1        0.1424
     25 C         141.5491  140.8895  170.9379 C.ar    1  UNL1        0.2019
     26 O         141.5858  141.3081  169.4980 O.2     1  UNL1       -0.4327
@<TRIPOS>BOND
     1     1     2    1
     2     2     3    2
     3     3     4    1
     4     4    14    1
     5    14    15   ar
     6    15    16   ar
     7    16    17   ar
     8    17    18    1
     9    17    19   ar
    10    19    20   ar
    11    20    21    1
    12     4     5    1
    13     5     6    1
    14     6     7    1
    15     7    22    1
    16    22    23   ar
    17    23    24   ar
    18    24    25   ar
    19    25    26   ar
    20     7     8    1
    21     9     8    1
    22     9    10    1
    23    10    11    1
    24    11     2    1
    25     9     4    1
    26    20    14   ar
    27    26    22   ar
    28     1    12    1
    29     1    13    1
@<TRIPOS>MOLECULE
*****
 26 29 0 0 0
SMALL
GASTEIGER

@<TRIPOS>ATOM
      1 N         139.2351  144.1349  160.7799 N.pl3   1  UNL1       -0.3380
      2 C         139.4369  143.8311  162.2349 C.2     1  UNL1        0.1482
      3 N         139.4901  142.4071  162.7033 N.2     1  UNL1       -0.2484
      4 C         139.6919  142.1032  164.1583 C.3     1  UNL1        0.1352
      5 C         139.7452  140.6792  164.6267 C.3     1  UNL1        0.1692
      6 O         139.9470  140.3753  166.0816 O.3     1  UNL1       -0.3446
      7 C         140.0955  141.4955  167.0682 C.3     1  UNL1        0.1910
      8 C         140.0423  142.9194  166.5998 C.3     1  UNL1        0.0423
      9 C         139.8405  143.2233  165.1448 C.3     1  UNL1        0.0412
     10 C         139.7872  144.6473  164.6764 C.3     1  UNL1        0.0672
     11 S         139.5854  144.9511  163.2214 S.3     1  UNL1       -0.0807
     12 H         139.1376  143.3998  160.1324 H       1  UNL1        0.1442
     13 H         139.2001  145.0696  160.4725 H       1  UNL1        0.1442
     14 C         139.5434  140.9831  163.1717 C.ar    1  UNL1        0.0278
     15 C         140.7603  140.3667  162.5479 C.ar    1  UNL1        0.0021
     16 C         140.6117  139.2465  161.5614 C.ar    1  UNL1        0.0295
     17 C         139.2462  138.7428  161.1986 C.ar    1  UNL1        0.1424
     18 F         139.0976  137.6227  160.2121 F       1  UNL1       -0.2041
     19 C         138.0292  139.3592  161.8225 C.ar    1  UNL1        0.0590
     20 C         138.1778  140.4793  162.8090 C.ar    1  UNL1        0.1402
     21 F         136.9609  141.0957  163.4328 F       1  UNL1       -0.2044
     22 C         140.2973  141.1916  168.5232 C.ar    1  UNL1        0.2331
     23 N         139.9659  139.8988  169.2081 N.ar    1  UNL1       -0.2083
     24 C         140.3298  140.0354  170.6569 C.ar    1  UNL1        0.1424
     25 C         140.8860  141.4125  170.8674 C.ar    1  UNL1        0.2019
     26 O         140.8659  142.1270  169.5487 O.2     1  UNL1       -0.4327
@<TRIPOS>BOND
     1     1     2    1
     2     2     3    2
     3     3     4    1
     4     4    14    1
     5    14    15   ar
     6    15    16   ar
     7    16    17   ar
     8    17    18    1
     9    17    19   ar
    10    19    20   ar
    11    20    21    1
    12     4     5    1
    13     5     6    1
    14     6     7    1
    15     7    22    1
    16    22    23   ar
    17    23    24   ar
    18    24    25   ar
    19    25    26   ar
    20     7     8    1
    21     9     8    1
    22     9    10    1
    23    10    11    1
    24    11     2    1
    25     9     4    1
    26    20    14   ar
    27    26    22   ar
    28     1    12    1
    29     1    13    1
@<TRIPOS>MOLECULE
*****
 26 29 0 0 0
SMALL
GASTEIGER

@<TRIPOS>ATOM
      1 N         140.3333  142.7983  166.9031 N.pl3   1  UNL1       -0.3380
      2 C         140.3074  143.3693  165.5163 C.2     1  UNL1        0.1482
      3 N         141.3389  142.9477  164.5123 N.2     1  UNL1       -0.2484
      4 C         141.3130  143.5187  163.1254 C.3     1  UNL1        0.1352
      5 C         142.3447  143.0971  162.1214 C.3     1  UNL1        0.1692
      6 O         142.3188  143.6680  160.7345 O.3     1  UNL1       -0.3446
      7 C         141.2612  144.6605  160.3517 C.3     1  UNL1        0.1910
      8 C         140.2297  145.0821  161.3557 C.3     1  UNL1        0.0423
      9 C         140.2556  144.5112  162.7426 C.3     1  UNL1        0.0412
     10 C         139.2240  144.9327  163.7466 C.3     1  UNL1        0.0672
     11 S         139.2499  144.3618  165.1334 S.3     1  UNL1       -0.0807
     12 H         141.0273  142.1469  167.1544 H       1  UNL1        0.1442
     13 H         139.6562  143.0750  167.5621 H       1  UNL1        0.1442
     14 C         142.3706  142.5261  163.5082 C.ar    1  UNL1        0.0278
     15 C         142.1385  141.0606  163.2886 C.ar    1  UNL1        0.0021
     16 C         143.1961  140.0680  163.6714 C.ar    1  UNL1        0.0295
     17 C         144.4857  140.5411  164.2739 C.ar    1  UNL1        0.1424
     18 F         145.5433  139.5487  164.6567 F       1  UNL1       -0.2041
     19 C         144.7178  142.0067  164.4936 C.ar    1  UNL1        0.0590
     20 C         143.6603  142.9992  164.1108 C.ar    1  UNL1        0.1402
     21 F         143.8923  144.4648  164.3304 F       1  UNL1       -0.2044
     22 C         141.2353  145.2315  158.9649 C.ar    1  UNL1        0.2331
     23 N         142.4058  145.3364  158.0326 N.ar    1  UNL1       -0.2083
     24 C         141.9283  145.9675  156.7583 C.ar    1  UNL1        0.1424
     25 C         140.4627  146.2526  156.9031 C.ar    1  UNL1        0.2019
     26 O         140.0345  145.7977  158.2668 O.2     1  UNL1       -0.4327
@<TRIPOS>BOND
     1     1     2    1
     2     2     3    2
     3     3     4    1
     4     4    14    1
     5    14    15   ar
     6    15    16   ar
     7    16    17   ar
     8    17    18    1
     9    17    19   ar
    10    19    20   ar
    11    20    21    1
    12     4     5    1
    13     5     6    1
    14     6     7    1
    15     7    22    1
    16    22    23   ar
    17    23    24   ar
    18    24    25   ar
    19    25    26   ar
    20     7     8    1
    21     9     8    1
    22     9    10    1
    23    10    11    1
    24    11     2    1
    25     9     4    1
    26    20    14   ar
    27    26    22   ar
    28     1    12    1
    29     1    13    1
@<TRIPOS>MOLECULE
*****
 26 29 0 0 0
SMALL
GASTEIGER

@<TRIPOS>ATOM
      1 N         144.3450  141.6425  161.1652 N.pl3   1  UNL1       -0.3380
      2 C         143.9241  141.3232  162.5690 C.2     1  UNL1        0.1482
      3 N         142.8904  142.1683  163.2526 N.2     1  UNL1       -0.2484
      4 C         142.4695  141.8490  164.6565 C.3     1  UNL1        0.1352
      5 C         141.4358  142.6941  165.3401 C.3     1  UNL1        0.1692
      6 O         141.0149  142.3749  166.7440 O.3     1  UNL1       -0.3446
      7 C         141.6276  141.2104  167.4643 C.3     1  UNL1        0.1910
      8 C         142.6613  140.3654  166.7807 C.3     1  UNL1        0.0423
      9 C         143.0822  140.6847  165.3768 C.3     1  UNL1        0.0412
     10 C         144.1159  139.8396  164.6932 C.3     1  UNL1        0.0672
     11 S         144.5368  140.1589  163.2893 S.3     1  UNL1       -0.0807
     12 H         143.9429  142.4067  160.6924 H       1  UNL1        0.1442
     13 H         145.0235  141.0878  160.7165 H       1  UNL1        0.1442
     14 C         141.8567  143.0134  163.9362 C.ar    1  UNL1        0.0278
     15 C         140.5921  142.8284  163.1511 C.ar    1  UNL1        0.0021
     16 C         139.9793  143.9928  162.4308 C.ar    1  UNL1        0.0295
     17 C         140.6312  145.3422  162.4958 C.ar    1  UNL1        0.1424
     18 F         140.0185  146.5065  161.7755 F       1  UNL1       -0.2041
     19 C         141.8958  145.5272  163.2810 C.ar    1  UNL1        0.0590
     20 C         142.5086  144.3628  164.0012 C.ar    1  UNL1        0.1402
     21 F         143.7732  144.5478  164.7865 F       1  UNL1       -0.2044
     22 C         141.2067  140.8912  168.8682 C.ar    1  UNL1        0.2331
     23 N         140.1756  139.8788  169.2708 N.ar    1  UNL1       -0.2083
     24 C         140.0746  139.8902  170.7674 C.ar    1  UNL1        0.1424
     25 C         141.0433  140.9095  171.2897 C.ar    1  UNL1        0.2019
     26 O         141.7429  141.5282  170.1159 O.2     1  UNL1       -0.4327
@<TRIPOS>BOND
     1     1     2    1
     2     2     3    2
     3     3     4    1
     4     4    14    1
     5    14    15   ar
     6    15    16   ar
     7    16    17   ar
     8    17    18    1
     9    17    19   ar
    10    19    20   ar
    11    20    21    1
    12     4     5    1
    13     5     6    1
    14     6     7    1
    15     7    22    1
    16    22    23   ar
    17    23    24   ar
    18    24    25   ar
    19    25    26   ar
    20     7     8    1
    21     9     8    1
    22     9    10    1
    23    10    11    1
    24    11     2    1
    25     9     4    1
    26    20    14   ar
    27    26    22   ar
    28     1    12    1
    29     1    13    1
