@<TRIPOS>MOLECULE
*****
 33 36 0 0 0
SMALL
GASTEIGER

@<TRIPOS>ATOM
      1 C         140.2104  141.9692  167.2813 C.3     1  UNL1        0.1437
      2 O         140.1580  143.4304  167.6162 O.3     1  UNL1       -0.3793
      3 H         139.6807  143.9053  166.9180 H       1  UNL1        0.2108
      4 C         140.8986  141.0115  168.2081 C.ar    1  UNL1        0.0226
      5 C         140.2149  140.5623  169.4655 C.ar    1  UNL1        0.0012
      6 C         140.9030  139.6046  170.3923 C.ar    1  UNL1        0.0204
      7 C         142.2750  139.0960  170.0619 C.ar    1  UNL1        0.0988
      8 N         142.9587  139.5451  168.8047 N.ar    1  UNL1       -0.2441
      9 C         142.2705  140.5029  167.8777 C.ar    1  UNL1        0.0796
     10 C         142.9542  140.9520  166.6205 C.ar    1  UNL1        0.0191
     11 C         143.3592  142.3872  166.4586 C.ar    1  UNL1        0.0129
     12 C         144.0429  142.8363  165.2012 C.ar    1  UNL1        0.0586
     13 CL        144.4479  144.2715  165.0393 Cl      1  UNL1       -0.0822
     14 C         144.3218  141.8502  164.1059 C.ar    1  UNL1        0.0228
     15 C         143.9168  140.4150  164.2678 C.ar    1  UNL1        0.0586
     16 CL        144.1957  139.4289  163.1724 Cl      1  UNL1       -0.0822
     17 C         143.2331  139.9659  165.5250 C.ar    1  UNL1        0.0129
     18 C         139.5746  141.4658  166.0194 C.3     1  UNL1        0.0951
     19 N         136.7695  137.4189  167.6791 N.pl3   1  UNL1       -0.3426
     20 C         137.7773  138.0000  166.7321 C.ar    1  UNL1        0.1250
     21 C         138.3902  137.1387  165.6680 C.ar    1  UNL1        0.0339
     22 C         139.3979  137.7197  164.7210 C.ar    1  UNL1        0.0041
     23 C         139.7927  139.1621  164.8381 C.ar    1  UNL1        0.0152
     24 C         139.1798  140.0234  165.9022 C.ar    1  UNL1        0.0668
     25 N         138.1721  139.4423  166.8492 N.ar    1  UNL1       -0.2350
     26 H         136.5104  136.4723  167.6023 H       1  UNL1        0.1437
     27 H         136.3672  137.9842  168.3776 H       1  UNL1        0.1437
     28 C         139.3336  142.4047  164.8747 C.ar    1  UNL1        0.0050
     29 C         140.4930  143.0653  164.1896 C.ar    1  UNL1       -0.0007
     30 C         140.2519  144.0042  163.0449 C.ar    1  UNL1        0.0204
     31 C         138.8515  144.2826  162.5853 C.ar    1  UNL1        0.0989
     32 N         137.6920  143.6220  163.2705 N.ar    1  UNL1       -0.2426
     33 C         137.9331  142.6831  164.4151 C.ar    1  UNL1        0.0950
@<TRIPOS>BOND
     1    19    20    1
     2    20    21   ar
     3    21    22   ar
     4    22    23   ar
     5    23    24   ar
     6    24    18    1
     7    18    28    1
     8    28    29   ar
     9    29    30   ar
    10    30    31   ar
    11    31    32   ar
    12    32    33   ar
    13    18     1    1
    14     1     2    1
    15     1     4    1
    16     4     5   ar
    17     5     6   ar
    18     6     7   ar
    19     7     8   ar
    20     8     9   ar
    21     9    10    1
    22    10    11   ar
    23    11    12   ar
    24    12    13    1
    25    12    14   ar
    26    14    15   ar
    27    15    16    1
    28    15    17   ar
    29    24    25   ar
    30    25    20   ar
    31    33    28   ar
    32     9     4   ar
    33    17    10   ar
    34    19    26    1
    35    19    27    1
    36     2     3    1
@<TRIPOS>MOLECULE
*****
 33 36 0 0 0
SMALL
GASTEIGER

@<TRIPOS>ATOM
      1 C         142.4314  142.7310  165.9957 C.3     1  UNL1        0.1437
      2 O         143.3346  142.6610  167.1913 O.3     1  UNL1       -0.3793
      3 H         142.8032  142.5170  167.9899 H       1  UNL1        0.2108
      4 C         143.0111  142.9491  164.6296 C.ar    1  UNL1        0.0226
      5 C         143.3938  144.3310  164.1891 C.ar    1  UNL1        0.0012
      6 C         143.9736  144.5492  162.8230 C.ar    1  UNL1        0.0204
      7 C         144.1705  143.3854  161.8973 C.ar    1  UNL1        0.0988
      8 N         143.7878  142.0036  162.3377 N.ar    1  UNL1       -0.2441
      9 C         143.2080  141.7854  163.7038 C.ar    1  UNL1        0.0796
     10 C         142.8253  140.4036  164.1442 C.ar    1  UNL1        0.0191
     11 C         143.5961  139.7242  165.2371 C.ar    1  UNL1        0.0129
     12 C         143.2133  138.3423  165.6775 C.ar    1  UNL1        0.0586
     13 CL        143.9841  137.6630  166.7703 Cl      1  UNL1       -0.0822
     14 C         142.0598  137.6398  165.0250 C.ar    1  UNL1        0.0228
     15 C         141.2889  138.3192  163.9321 C.ar    1  UNL1        0.0586
     16 CL        140.1354  137.6167  163.2797 Cl      1  UNL1       -0.0822
     17 C         141.6717  139.7010  163.4918 C.ar    1  UNL1        0.0129
     18 C         140.9485  142.5830  166.1663 C.3     1  UNL1        0.0951
     19 N         139.8385  142.8301  171.2365 N.pl3   1  UNL1       -0.3426
     20 C         139.8411  142.0709  169.9428 C.ar    1  UNL1        0.1250
     21 C         139.2914  140.6763  169.8904 C.ar    1  UNL1        0.0339
     22 C         139.2941  139.9172  168.5966 C.ar    1  UNL1        0.0041
     23 C         139.8464  140.5527  167.3553 C.ar    1  UNL1        0.0152
     24 C         140.3961  141.9474  167.4077 C.ar    1  UNL1        0.0668
     25 N         140.3935  142.7065  168.7014 N.ar    1  UNL1       -0.2350
     26 H         139.4760  142.4129  172.0512 H       1  UNL1        0.1437
     27 H         140.1993  143.7454  171.2709 H       1  UNL1        0.1437
     28 C         140.0180  143.0704  165.0956 C.ar    1  UNL1        0.0050
     29 C         139.3156  142.0867  164.2074 C.ar    1  UNL1       -0.0007
     30 C         138.3850  142.5742  163.1366 C.ar    1  UNL1        0.0204
     31 C         138.1569  144.0455  162.9541 C.ar    1  UNL1        0.0989
     32 N         138.8593  145.0292  163.8423 N.ar    1  UNL1       -0.2426
     33 C         139.7898  144.5418  164.9130 C.ar    1  UNL1        0.0950
@<TRIPOS>BOND
     1    19    20    1
     2    20    21   ar
     3    21    22   ar
     4    22    23   ar
     5    23    24   ar
     6    24    18    1
     7    18    28    1
     8    28    29   ar
     9    29    30   ar
    10    30    31   ar
    11    31    32   ar
    12    32    33   ar
    13    18     1    1
    14     1     2    1
    15     1     4    1
    16     4     5   ar
    17     5     6   ar
    18     6     7   ar
    19     7     8   ar
    20     8     9   ar
    21     9    10    1
    22    10    11   ar
    23    11    12   ar
    24    12    13    1
    25    12    14   ar
    26    14    15   ar
    27    15    16    1
    28    15    17   ar
    29    24    25   ar
    30    25    20   ar
    31    33    28   ar
    32     9     4   ar
    33    17    10   ar
    34    19    26    1
    35    19    27    1
    36     2     3    1
@<TRIPOS>MOLECULE
*****
 33 36 0 0 0
SMALL
GASTEIGER

@<TRIPOS>ATOM
      1 C         140.3017  142.1032  167.3239 C.3     1  UNL1        0.1437
      2 O         140.2419  143.5346  167.7687 O.3     1  UNL1       -0.3793
      3 H         139.7808  144.0626  167.0983 H       1  UNL1        0.2108
      4 C         140.9683  141.0759  168.1899 C.ar    1  UNL1        0.0226
      5 C         140.2851  140.5843  169.4316 C.ar    1  UNL1        0.0012
      6 C         140.9516  139.5569  170.2977 C.ar    1  UNL1        0.0204
      7 C         142.3014  139.0211  169.9222 C.ar    1  UNL1        0.0988
      8 N         142.9846  139.5126  168.6806 N.ar    1  UNL1       -0.2441
      9 C         142.3180  140.5400  167.8144 C.ar    1  UNL1        0.0796
     10 C         143.0012  141.0315  166.5729 C.ar    1  UNL1        0.0191
     11 C         143.3568  140.0669  165.4805 C.ar    1  UNL1        0.0129
     12 C         144.0400  140.5585  164.2389 C.ar    1  UNL1        0.0586
     13 CL        144.3955  139.5939  163.1466 Cl      1  UNL1       -0.0822
     14 C         144.3677  142.0146  164.0896 C.ar    1  UNL1        0.0228
     15 C         144.0122  142.9792  165.1819 C.ar    1  UNL1        0.0586
     16 CL        144.3398  144.4353  165.0327 Cl      1  UNL1       -0.0822
     17 C         143.3290  142.4877  166.4235 C.ar    1  UNL1        0.0129
     18 C         139.6949  141.6994  166.0129 C.3     1  UNL1        0.0951
     19 N         141.1925  145.8198  163.2236 N.pl3   1  UNL1       -0.3426
     20 C         140.1526  144.7975  163.5751 C.ar    1  UNL1        0.1250
     21 C         138.8216  144.8131  162.8837 C.ar    1  UNL1        0.0339
     22 C         137.7817  143.7909  163.2352 C.ar    1  UNL1        0.0041
     23 C         138.0728  142.7530  164.2783 C.ar    1  UNL1        0.0152
     24 C         139.4038  142.7373  164.9698 C.ar    1  UNL1        0.0668
     25 N         140.4437  143.7596  164.6182 N.ar    1  UNL1       -0.2350
     26 H         141.0014  146.5010  162.5390 H       1  UNL1        0.1437
     27 H         142.0660  145.8095  163.6775 H       1  UNL1        0.1437
     28 C         139.3793  140.2577  165.7450 C.ar    1  UNL1        0.0050
     29 C         138.3628  139.5437  166.5858 C.ar    1  UNL1       -0.0007
     30 C         138.0472  138.1019  166.3178 C.ar    1  UNL1        0.0204
     31 C         138.7480  137.3742  165.2091 C.ar    1  UNL1        0.0989
     32 N         139.7644  138.0882  164.3683 N.ar    1  UNL1       -0.2426
     33 C         140.0801  139.5299  164.6362 C.ar    1  UNL1        0.0950
@<TRIPOS>BOND
     1    19    20    1
     2    20    21   ar
     3    21    22   ar
     4    22    23   ar
     5    23    24   ar
     6    24    18    1
     7    18    28    1
     8    28    29   ar
     9    29    30   ar
    10    30    31   ar
    11    31    32   ar
    12    32    33   ar
    13    18     1    1
    14     1     2    1
    15     1     4    1
    16     4     5   ar
    17     5     6   ar
    18     6     7   ar
    19     7     8   ar
    20     8     9   ar
    21     9    10    1
    22    10    11   ar
    23    11    12   ar
    24    12    13    1
    25    12    14   ar
    26    14    15   ar
    27    15    16    1
    28    15    17   ar
    29    24    25   ar
    30    25    20   ar
    31    33    28   ar
    32     9     4   ar
    33    17    10   ar
    34    19    26    1
    35    19    27    1
    36     2     3    1
@<TRIPOS>MOLECULE
*****
 33 36 0 0 0
SMALL
GASTEIGER

@<TRIPOS>ATOM
      1 C         139.5445  141.6184  165.8322 C.3     1  UNL1        0.1437
      2 O         138.6460  142.5964  165.1348 O.3     1  UNL1       -0.3793
      3 H         138.9735  143.4976  165.2812 H       1  UNL1        0.2108
      4 C         139.2535  140.1487  165.7595 C.ar    1  UNL1        0.0226
      5 C         138.1492  139.5610  166.5873 C.ar    1  UNL1        0.0012
      6 C         137.8581  138.0913  166.5146 C.ar    1  UNL1        0.0204
      7 C         138.6713  137.2093  165.6142 C.ar    1  UNL1        0.0988
      8 N         139.7755  137.7970  164.7864 N.ar    1  UNL1       -0.2441
      9 C         140.0667  139.2668  164.8591 C.ar    1  UNL1        0.0796
     10 C         141.1709  139.8544  164.0313 C.ar    1  UNL1        0.0191
     11 C         140.8441  140.6836  162.8248 C.ar    1  UNL1        0.0129
     12 C         141.9484  141.2712  161.9971 C.ar    1  UNL1        0.0586
     13 CL        141.6215  142.1004  160.7905 Cl      1  UNL1       -0.0822
     14 C         143.3795  141.0298  162.3758 C.ar    1  UNL1        0.0228
     15 C         143.7064  140.2006  163.5824 C.ar    1  UNL1        0.0586
     16 CL        145.1375  139.9591  163.9611 Cl      1  UNL1       -0.0822
     17 C         142.6021  139.6130  164.4101 C.ar    1  UNL1        0.0129
     18 C         140.7341  142.1102  166.6023 C.3     1  UNL1        0.0951
     19 N         142.3965  145.2706  162.8276 N.pl3   1  UNL1       -0.3426
     20 C         142.6883  144.3813  163.9997 C.ar    1  UNL1        0.1250
     21 C         144.1031  144.1829  164.4567 C.ar    1  UNL1        0.0339
     22 C         144.3950  143.2935  165.6288 C.ar    1  UNL1        0.0041
     23 C         143.2720  142.6027  166.3440 C.ar    1  UNL1        0.0152
     24 C         141.8572  142.8011  165.8871 C.ar    1  UNL1        0.0668
     25 N         141.5653  143.6904  164.7149 N.ar    1  UNL1       -0.2350
     26 H         143.1335  145.7241  162.3582 H       1  UNL1        0.1437
     27 H         141.4678  145.4009  162.5277 H       1  UNL1        0.1437
     28 C         140.8007  141.9111  168.0875 C.ar    1  UNL1        0.0050
     29 C         141.1428  140.5629  168.6489 C.ar    1  UNL1       -0.0007
     30 C         141.2094  140.3639  170.1342 C.ar    1  UNL1        0.0204
     31 C         140.9338  141.5130  171.0580 C.ar    1  UNL1        0.0989
     32 N         140.5917  142.8613  170.4966 N.ar    1  UNL1       -0.2426
     33 C         140.5251  143.0603  169.0114 C.ar    1  UNL1        0.0950
@<TRIPOS>BOND
     1    19    20    1
     2    20    21   ar
     3    21    22   ar
     4    22    23   ar
     5    23    24   ar
     6    24    18    1
     7    18    28    1
     8    28    29   ar
     9    29    30   ar
    10    30    31   ar
    11    31    32   ar
    12    32    33   ar
    13    18     1    1
    14     1     2    1
    15     1     4    1
    16     4     5   ar
    17     5     6   ar
    18     6     7   ar
    19     7     8   ar
    20     8     9   ar
    21     9    10    1
    22    10    11   ar
    23    11    12   ar
    24    12    13    1
    25    12    14   ar
    26    14    15   ar
    27    15    16    1
    28    15    17   ar
    29    24    25   ar
    30    25    20   ar
    31    33    28   ar
    32     9     4   ar
    33    17    10   ar
    34    19    26    1
    35    19    27    1
    36     2     3    1
@<TRIPOS>MOLECULE
*****
 33 36 0 0 0
SMALL
GASTEIGER

@<TRIPOS>ATOM
      1 C         139.9808  140.8209  166.2481 C.3     1  UNL1        0.1437
      2 O         139.7676  139.8740  167.3918 O.3     1  UNL1       -0.3793
      3 H         140.0844  140.2820  168.2128 H       1  UNL1        0.2108
      4 C         139.5721  140.4248  164.8603 C.ar    1  UNL1        0.0226
      5 C         138.1474  140.5916  164.4216 C.ar    1  UNL1        0.0012
      6 C         137.7387  140.1955  163.0338 C.ar    1  UNL1        0.0204
      7 C         138.7547  139.6326  162.0846 C.ar    1  UNL1        0.0988
      8 N         140.1793  139.4658  162.5233 N.ar    1  UNL1       -0.2441
      9 C         140.5881  139.8619  163.9111 C.ar    1  UNL1        0.0796
     10 C         142.0127  139.6951  164.3498 C.ar    1  UNL1        0.0191
     11 C         142.3604  138.6824  165.4004 C.ar    1  UNL1        0.0129
     12 C         143.7851  138.5156  165.8390 C.ar    1  UNL1        0.0586
     13 CL        144.1327  137.5030  166.8896 Cl      1  UNL1       -0.0822
     14 C         144.8622  139.3614  165.2270 C.ar    1  UNL1        0.0228
     15 C         144.5146  140.3740  164.1764 C.ar    1  UNL1        0.0586
     16 CL        145.5916  141.2198  163.5644 Cl      1  UNL1       -0.0822
     17 C         143.0899  140.5409  163.7378 C.ar    1  UNL1        0.0129
     18 C         140.6027  142.1639  166.4923 C.3     1  UNL1        0.0951
     19 N         142.8691  145.0889  162.8443 N.pl3   1  UNL1       -0.3426
     20 C         141.6470  144.6958  163.6202 C.ar    1  UNL1        0.1250
     21 C         140.3361  145.3720  163.3480 C.ar    1  UNL1        0.0339
     22 C         139.1140  144.9789  164.1239 C.ar    1  UNL1        0.0041
     23 C         139.2029  143.9096  165.1719 C.ar    1  UNL1        0.0152
     24 C         140.5138  143.2333  165.4442 C.ar    1  UNL1        0.0668
     25 N         141.7359  143.6264  164.6683 N.ar    1  UNL1       -0.2350
     26 H         142.8108  145.7908  162.1564 H       1  UNL1        0.1437
     27 H         143.7295  144.6451  163.0230 H       1  UNL1        0.1437
     28 C         141.3135  142.4375  167.7845 C.ar    1  UNL1        0.0050
     29 C         142.7423  142.0155  167.9585 C.ar    1  UNL1       -0.0007
     30 C         143.4531  142.2891  169.2509 C.ar    1  UNL1        0.0204
     31 C         142.7350  142.9847  170.3691 C.ar    1  UNL1        0.0989
     32 N         141.3061  143.4067  170.1951 N.ar    1  UNL1       -0.2426
     33 C         140.5953  143.1331  168.9028 C.ar    1  UNL1        0.0950
@<TRIPOS>BOND
     1    19    20    1
     2    20    21   ar
     3    21    22   ar
     4    22    23   ar
     5    23    24   ar
     6    24    18    1
     7    18    28    1
     8    28    29   ar
     9    29    30   ar
    10    30    31   ar
    11    31    32   ar
    12    32    33   ar
    13    18     1    1
    14     1     2    1
    15     1     4    1
    16     4     5   ar
    17     5     6   ar
    18     6     7   ar
    19     7     8   ar
    20     8     9   ar
    21     9    10    1
    22    10    11   ar
    23    11    12   ar
    24    12    13    1
    25    12    14   ar
    26    14    15   ar
    27    15    16    1
    28    15    17   ar
    29    24    25   ar
    30    25    20   ar
    31    33    28   ar
    32     9     4   ar
    33    17    10   ar
    34    19    26    1
    35    19    27    1
    36     2     3    1
@<TRIPOS>MOLECULE
*****
 33 36 0 0 0
SMALL
GASTEIGER

@<TRIPOS>ATOM
      1 C         142.4319  142.7619  165.9353 C.3     1  UNL1        0.1437
      2 O         143.4937  142.7203  166.9940 O.3     1  UNL1       -0.3793
      3 H         143.0809  142.5803  167.8606 H       1  UNL1        0.2108
      4 C         142.8125  142.9689  164.4992 C.ar    1  UNL1        0.0226
      5 C         143.1384  144.3456  164.0006 C.ar    1  UNL1        0.0012
      6 C         143.5190  144.5525  162.5645 C.ar    1  UNL1        0.0204
      7 C         143.5736  143.3829  161.6270 C.ar    1  UNL1        0.0988
      8 N         143.2477  142.0062  162.1256 N.ar    1  UNL1       -0.2441
      9 C         142.8671  141.7992  163.5617 C.ar    1  UNL1        0.0796
     10 C         142.5412  140.4226  164.0602 C.ar    1  UNL1        0.0191
     11 C         141.3512  139.6897  163.5153 C.ar    1  UNL1        0.0129
     12 C         141.0253  138.3130  164.0140 C.ar    1  UNL1        0.0586
     13 CL        139.8353  137.5802  163.4691 Cl      1  UNL1       -0.0822
     14 C         141.8894  137.6692  165.0574 C.ar    1  UNL1        0.0228
     15 C         143.0794  138.4020  165.6023 C.ar    1  UNL1        0.0586
     16 CL        143.9434  137.7582  166.6457 Cl      1  UNL1       -0.0822
     17 C         143.4053  139.7787  165.1037 C.ar    1  UNL1        0.0129
     18 C         140.9896  142.5964  166.3126 C.3     1  UNL1        0.0951
     19 N         136.9656  141.2669  163.3060 N.pl3   1  UNL1       -0.3426
     20 C         137.8998  142.3128  163.8382 C.ar    1  UNL1        0.1250
     21 C         137.7563  143.7399  163.3993 C.ar    1  UNL1        0.0339
     22 C         138.6905  144.7859  163.9314 C.ar    1  UNL1        0.0041
     23 C         139.7683  144.4047  164.9025 C.ar    1  UNL1        0.0152
     24 C         139.9118  142.9776  165.3415 C.ar    1  UNL1        0.0668
     25 N         138.9776  141.9317  164.8093 N.ar    1  UNL1       -0.2350
     26 H         136.2582  141.5171  162.6686 H       1  UNL1        0.1437
     27 H         137.0598  140.3302  163.5941 H       1  UNL1        0.1437
     28 C         140.6251  142.0498  167.6610 C.ar    1  UNL1        0.0050
     29 C         140.4946  140.5687  167.8596 C.ar    1  UNL1       -0.0007
     30 C         140.1300  140.0221  169.2081 C.ar    1  UNL1        0.0204
     31 C         139.8961  140.9565  170.3579 C.ar    1  UNL1        0.0989
     32 N         140.0267  142.4376  170.1593 N.ar    1  UNL1       -0.2426
     33 C         140.3912  142.9842  168.8109 C.ar    1  UNL1        0.0950
@<TRIPOS>BOND
     1    19    20    1
     2    20    21   ar
     3    21    22   ar
     4    22    23   ar
     5    23    24   ar
     6    24    18    1
     7    18    28    1
     8    28    29   ar
     9    29    30   ar
    10    30    31   ar
    11    31    32   ar
    12    32    33   ar
    13    18     1    1
    14     1     2    1
    15     1     4    1
    16     4     5   ar
    17     5     6   ar
    18     6     7   ar
    19     7     8   ar
    20     8     9   ar
    21     9    10    1
    22    10    11   ar
    23    11    12   ar
    24    12    13    1
    25    12    14   ar
    26    14    15   ar
    27    15    16    1
    28    15    17   ar
    29    24    25   ar
    30    25    20   ar
    31    33    28   ar
    32     9     4   ar
    33    17    10   ar
    34    19    26    1
    35    19    27    1
    36     2     3    1
@<TRIPOS>MOLECULE
*****
 33 36 0 0 0
SMALL
GASTEIGER

@<TRIPOS>ATOM
      1 C         142.4284  142.7532  165.9230 C.3     1  UNL1        0.1437
      2 O         143.4882  142.7082  166.9837 O.3     1  UNL1       -0.3793
      3 H         143.0734  142.5697  167.8495 H       1  UNL1        0.2108
      4 C         142.8122  142.9587  164.4876 C.ar    1  UNL1        0.0226
      5 C         143.1395  144.3348  163.9883 C.ar    1  UNL1        0.0012
      6 C         143.5233  144.5403  162.5529 C.ar    1  UNL1        0.0204
      7 C         143.5798  143.3697  161.6167 C.ar    1  UNL1        0.0988
      8 N         143.2525  141.9936  162.1159 N.ar    1  UNL1       -0.2441
      9 C         142.8687  141.7881  163.5513 C.ar    1  UNL1        0.0796
     10 C         142.5414  140.4120  164.0505 C.ar    1  UNL1        0.0191
     11 C         143.3999  139.7711  165.1004 C.ar    1  UNL1        0.0129
     12 C         143.0726  138.3950  165.5996 C.ar    1  UNL1        0.0586
     13 CL        143.9310  137.7541  166.6495 Cl      1  UNL1       -0.0822
     14 C         141.8868  137.6597  165.0488 C.ar    1  UNL1        0.0228
     15 C         141.0284  138.3006  163.9989 C.ar    1  UNL1        0.0586
     16 CL        139.8426  137.5653  163.4481 Cl      1  UNL1       -0.0822
     17 C         141.3556  139.6767  163.4997 C.ar    1  UNL1        0.0129
     18 C         140.9849  142.5926  166.2978 C.3     1  UNL1        0.0951
     19 N         136.9573  141.2714  163.2923 N.pl3   1  UNL1       -0.3426
     20 C         137.8963  142.3147  163.8212 C.ar    1  UNL1        0.1250
     21 C         137.7606  143.7407  163.3761 C.ar    1  UNL1        0.0339
     22 C         138.6997  144.7840  163.9050 C.ar    1  UNL1        0.0041
     23 C         139.7744  144.4013  164.8788 C.ar    1  UNL1        0.0152
     24 C         139.9101  142.9753  165.3238 C.ar    1  UNL1        0.0668
     25 N         138.9711  141.9320  164.7950 N.ar    1  UNL1       -0.2350
     26 H         136.2519  141.5225  162.6531 H       1  UNL1        0.1437
     27 H         137.0464  140.3354  163.5844 H       1  UNL1        0.1437
     28 C         140.6161  142.0493  167.6464 C.ar    1  UNL1        0.0050
     29 C         140.4370  140.5723  167.8366 C.ar    1  UNL1       -0.0007
     30 C         140.0682  140.0290  169.1853 C.ar    1  UNL1        0.0204
     31 C         139.8786  140.9628  170.3437 C.ar    1  UNL1        0.0989
     32 N         140.0578  142.4399  170.1535 N.ar    1  UNL1       -0.2426
     33 C         140.4265  142.9831  168.8049 C.ar    1  UNL1        0.0950
@<TRIPOS>BOND
     1    19    20    1
     2    20    21   ar
     3    21    22   ar
     4    22    23   ar
     5    23    24   ar
     6    24    18    1
     7    18    28    1
     8    28    29   ar
     9    29    30   ar
    10    30    31   ar
    11    31    32   ar
    12    32    33   ar
    13    18     1    1
    14     1     2    1
    15     1     4    1
    16     4     5   ar
    17     5     6   ar
    18     6     7   ar
    19     7     8   ar
    20     8     9   ar
    21     9    10    1
    22    10    11   ar
    23    11    12   ar
    24    12    13    1
    25    12    14   ar
    26    14    15   ar
    27    15    16    1
    28    15    17   ar
    29    24    25   ar
    30    25    20   ar
    31    33    28   ar
    32     9     4   ar
    33    17    10   ar
    34    19    26    1
    35    19    27    1
    36     2     3    1
@<TRIPOS>MOLECULE
*****
 33 36 0 0 0
SMALL
GASTEIGER

@<TRIPOS>ATOM
      1 C         140.6525  142.4270  165.9285 C.3     1  UNL1        0.1437
      2 O         140.3583  142.5626  167.3932 O.3     1  UNL1       -0.3793
      3 H         141.1010  142.2079  167.9064 H       1  UNL1        0.2108
      4 C         139.6545  142.9045  164.9157 C.ar    1  UNL1        0.0226
      5 C         139.5416  144.3680  164.6063 C.ar    1  UNL1        0.0012
      6 C         138.5436  144.8456  163.5934 C.ar    1  UNL1        0.0204
      7 C         137.6585  143.8598  162.8900 C.ar    1  UNL1        0.0988
      8 N         137.7714  142.3964  163.1994 N.ar    1  UNL1       -0.2441
      9 C         138.7694  141.9188  164.2123 C.ar    1  UNL1        0.0796
     10 C         138.8823  140.4554  164.5217 C.ar    1  UNL1        0.0191
     11 C         139.7809  139.5817  163.6976 C.ar    1  UNL1        0.0129
     12 C         139.8938  138.1183  164.0070 C.ar    1  UNL1        0.0586
     13 CL        140.7924  137.2446  163.1829 Cl      1  UNL1       -0.0822
     14 C         139.1081  137.5286  165.1405 C.ar    1  UNL1        0.0228
     15 C         138.2095  138.4023  165.9647 C.ar    1  UNL1        0.0586
     16 CL        137.4238  137.8126  167.0982 Cl      1  UNL1       -0.0822
     17 C         138.0966  139.8656  165.6553 C.ar    1  UNL1        0.0129
     18 C         141.9447  141.8138  165.4768 C.3     1  UNL1        0.0951
     19 N         142.7070  139.0508  169.8111 N.pl3   1  UNL1       -0.3426
     20 C         142.8521  139.2043  168.3260 C.ar    1  UNL1        0.1250
     21 C         143.5234  138.1299  167.5230 C.ar    1  UNL1        0.0339
     22 C         143.6686  138.2834  166.0380 C.ar    1  UNL1        0.0041
     23 C         143.1424  139.5113  165.3559 C.ar    1  UNL1        0.0152
     24 C         142.4710  140.5858  166.1589 C.ar    1  UNL1        0.0668
     25 N         142.3259  140.4323  167.6439 N.ar    1  UNL1       -0.2350
     26 H         143.0523  138.2449  170.2587 H       1  UNL1        0.1437
     27 H         142.2663  139.7561  170.3381 H       1  UNL1        0.1437
     28 C         142.7107  142.4285  164.3431 C.ar    1  UNL1        0.0050
     29 C         142.5465  141.8953  162.9507 C.ar    1  UNL1       -0.0007
     30 C         143.3126  142.5101  161.8170 C.ar    1  UNL1        0.0204
     31 C         144.2428  143.6580  162.0757 C.ar    1  UNL1        0.0989
     32 N         144.4070  144.1912  163.4681 N.ar    1  UNL1       -0.2426
     33 C         143.6410  143.5765  164.6018 C.ar    1  UNL1        0.0950
@<TRIPOS>BOND
     1    19    20    1
     2    20    21   ar
     3    21    22   ar
     4    22    23   ar
     5    23    24   ar
     6    24    18    1
     7    18    28    1
     8    28    29   ar
     9    29    30   ar
    10    30    31   ar
    11    31    32   ar
    12    32    33   ar
    13    18     1    1
    14     1     2    1
    15     1     4    1
    16     4     5   ar
    17     5     6   ar
    18     6     7   ar
    19     7     8   ar
    20     8     9   ar
    21     9    10    1
    22    10    11   ar
    23    11    12   ar
    24    12    13    1
    25    12    14   ar
    26    14    15   ar
    27    15    16    1
    28    15    17   ar
    29    24    25   ar
    30    25    20   ar
    31    33    28   ar
    32     9     4   ar
    33    17    10   ar
    34    19    26    1
    35    19    27    1
    36     2     3    1
@<TRIPOS>MOLECULE
*****
 33 36 0 0 0
SMALL
GASTEIGER

@<TRIPOS>ATOM
      1 C         143.2396  140.7187  165.3381 C.3     1  UNL1        0.1437
      2 O         144.2617  139.7034  164.9203 O.3     1  UNL1       -0.3793
      3 H         144.1125  138.8762  165.4045 H       1  UNL1        0.2108
      4 C         143.2535  142.0904  164.7313 C.ar    1  UNL1        0.0226
      5 C         144.0942  143.1722  165.3420 C.ar    1  UNL1        0.0012
      6 C         144.1081  144.5439  164.7352 C.ar    1  UNL1        0.0204
      7 C         143.2813  144.8338  163.5177 C.ar    1  UNL1        0.0988
      8 N         142.4407  143.7521  162.9069 N.ar    1  UNL1       -0.2441
      9 C         142.4268  142.3803  163.5137 C.ar    1  UNL1        0.0796
     10 C         141.5861  141.2985  162.9030 C.ar    1  UNL1        0.0191
     11 C         142.2297  140.2257  162.0754 C.ar    1  UNL1        0.0129
     12 C         141.3889  139.1439  161.4646 C.ar    1  UNL1        0.0586
     13 CL        142.0325  138.0711  160.6371 Cl      1  UNL1       -0.0822
     14 C         139.9048  139.1350  161.6814 C.ar    1  UNL1        0.0228
     15 C         139.2612  140.2078  162.5090 C.ar    1  UNL1        0.0586
     16 CL        137.7770  140.1989  162.7258 Cl      1  UNL1       -0.0822
     17 C         140.1018  141.2896  163.1198 C.ar    1  UNL1        0.0129
     18 C         142.2037  140.3623  166.3626 C.3     1  UNL1        0.0951
     19 N         143.7002  139.7596  171.3020 N.pl3   1  UNL1       -0.3426
     20 C         143.0647  140.5942  170.2298 C.ar    1  UNL1        0.1250
     21 C         142.5419  141.9620  170.5551 C.ar    1  UNL1        0.0339
     22 C         141.9064  142.7966  169.4829 C.ar    1  UNL1        0.0041
     23 C         141.7936  142.2633  168.0854 C.ar    1  UNL1        0.0152
     24 C         142.3164  140.8956  167.7602 C.ar    1  UNL1        0.0668
     25 N         142.9519  140.0610  168.8324 N.ar    1  UNL1       -0.2350
     26 H         143.7742  140.1096  172.2192 H       1  UNL1        0.1437
     27 H         144.0433  138.8619  171.0885 H       1  UNL1        0.1437
     28 C         141.0550  139.4726  165.9898 C.ar    1  UNL1        0.0050
     29 C         139.6699  139.7973  166.4651 C.ar    1  UNL1       -0.0007
     30 C         138.5212  138.9075  166.0922 C.ar    1  UNL1        0.0204
     31 C         138.7577  137.6932  165.2440 C.ar    1  UNL1        0.0989
     32 N         140.1429  137.3686  164.7686 N.ar    1  UNL1       -0.2426
     33 C         141.2915  138.2583  165.1415 C.ar    1  UNL1        0.0950
@<TRIPOS>BOND
     1    19    20    1
     2    20    21   ar
     3    21    22   ar
     4    22    23   ar
     5    23    24   ar
     6    24    18    1
     7    18    28    1
     8    28    29   ar
     9    29    30   ar
    10    30    31   ar
    11    31    32   ar
    12    32    33   ar
    13    18     1    1
    14     1     2    1
    15     1     4    1
    16     4     5   ar
    17     5     6   ar
    18     6     7   ar
    19     7     8   ar
    20     8     9   ar
    21     9    10    1
    22    10    11   ar
    23    11    12   ar
    24    12    13    1
    25    12    14   ar
    26    14    15   ar
    27    15    16    1
    28    15    17   ar
    29    24    25   ar
    30    25    20   ar
    31    33    28   ar
    32     9     4   ar
    33    17    10   ar
    34    19    26    1
    35    19    27    1
    36     2     3    1
