@<TRIPOS>MOLECULE
*****
 35 40 0 0 0
SMALL
GASTEIGER

@<TRIPOS>ATOM
      1 N         142.2553  138.3855  160.0182 N.3     1  UNL1       -0.2695
      2 C         141.3186  137.9286  161.0970 C.3     1  UNL1        0.0939
      3 C         141.7226  138.0391  162.5374 C.3     1  UNL1        0.1107
      4 N         143.0632  138.6063  162.8990 N.am    1  UNL1       -0.2764
      5 C         143.4672  138.7168  164.3393 C.2     1  UNL1        0.2301
      6 O         144.8079  139.2841  164.7009 O.2     1  UNL1       -0.2745
      7 C         144.0000  139.0632  161.8202 C.3     1  UNL1        0.1107
      8 C         143.5961  138.9528  160.3799 C.3     1  UNL1        0.0939
      9 C         141.8514  138.2751  158.5779 C.3     1  UNL1        0.0769
     10 C         142.7996  137.6857  157.5761 C.3     1  UNL1        0.0437
     11 O         140.8001  131.8909  153.9630 O.2     1  UNL1       -0.2449
     12 C         141.6687  132.3724  155.0872 C.2     1  UNL1        0.3413
     13 O         142.5572  131.5188  155.9427 O.3     1  UNL1       -0.4404
     14 C         143.2389  132.4109  156.9374 C.3     1  UNL1        0.2356
     15 C         142.7716  133.8158  156.6967 C.ar    1  UNL1        0.0272
     16 C         143.1044  135.1137  157.3710 C.ar    1  UNL1       -0.0047
     17 C         142.4668  136.3877  156.9018 C.ar    1  UNL1       -0.0210
     18 C         141.4964  136.3639  155.7583 C.ar    1  UNL1       -0.0040
     19 C         141.1635  135.0660  155.0839 C.ar    1  UNL1        0.0059
     20 C         141.8012  133.7920  155.5531 C.ar    1  UNL1        0.0751
     21 C         142.5304  138.2599  165.4181 C.3     1  UNL1        0.1112
     22 C         141.9820  139.2490  166.4036 C.ar    1  UNL1       -0.0170
     23 C         142.9041  139.9431  167.3616 C.ar    1  UNL1       -0.0025
     24 C         142.3557  140.9321  168.3470 C.ar    1  UNL1        0.0189
     25 C         140.8852  141.2269  168.3745 C.ar    1  UNL1        0.0859
     26 C         139.9631  140.5327  167.4165 C.ar    1  UNL1        0.0147
     27 C         140.5115  139.5438  166.4310 C.ar    1  UNL1       -0.0245
     28 N         140.3368  142.2160  169.3600 N.ar    1  UNL1       -0.1886
     29 C         140.5616  143.6989  169.3388 C.ar    1  UNL1        0.2258
     30 N         139.8311  144.2952  170.5053 N.ar    1  UNL1       -0.1045
     31 N         139.1549  143.1807  171.2475 N.ar    1  UNL1       -0.0222
     32 N         139.4675  141.8957  170.5397 N.ar    1  UNL1       -0.0385
     33 C         139.5894  138.8495  165.4730 C.3     1  UNL1        0.0221
     34 C         138.9013  137.6012  165.0059 C.3     1  UNL1        0.0047
     35 C         138.6805  138.8955  164.2807 C.3     1  UNL1        0.0047
@<TRIPOS>BOND
     1    11    12    2
     2    12    13    1
     3    13    14    1
     4    14    15    1
     5    15    16   ar
     6    16    17   ar
     7    17    10    1
     8    10     9    1
     9     9     1    1
    10     1     2    1
    11     2     3    1
    12     3     4    1
    13     4     5   am
    14     5     6    2
    15     5    21    1
    16    21    22    1
    17    22    23   ar
    18    23    24   ar
    19    24    25   ar
    20    25    28    1
    21    28    29   ar
    22    29    30   ar
    23    30    31   ar
    24    31    32   ar
    25    25    26   ar
    26    26    27   ar
    27    27    33    1
    28    33    34    1
    29    34    35    1
    30     4     7    1
    31     7     8    1
    32    17    18   ar
    33    18    19   ar
    34    19    20   ar
    35    20    12    1
    36    20    15   ar
    37     8     1    1
    38    27    22   ar
    39    35    33    1
    40    32    28   ar
@<TRIPOS>MOLECULE
*****
 35 40 0 0 0
SMALL
GASTEIGER

@<TRIPOS>ATOM
      1 N         141.7467  139.6872  160.8659 N.3     1  UNL1       -0.2695
      2 C         141.4924  139.3452  162.3040 C.3     1  UNL1        0.0939
      3 C         140.2474  139.8350  162.9826 C.3     1  UNL1        0.1107
      4 N         139.2569  140.6667  162.2230 N.am    1  UNL1       -0.2764
      5 C         138.0120  141.1564  162.9016 C.2     1  UNL1        0.2301
      6 O         137.0214  141.9881  162.1420 O.2     1  UNL1       -0.2745
      7 C         139.5112  141.0087  160.7848 C.3     1  UNL1        0.1107
      8 C         140.7560  140.5190  160.1063 C.3     1  UNL1        0.0939
      9 C         142.9915  139.1975  160.1873 C.3     1  UNL1        0.0769
     10 C         144.3368  139.6584  160.6646 C.3     1  UNL1        0.0437
     11 O         145.0651  143.9128  166.3217 O.2     1  UNL1       -0.2449
     12 C         144.6091  143.8714  164.8933 C.2     1  UNL1        0.3413
     13 O         144.0502  145.0238  164.1125 O.3     1  UNL1       -0.4404
     14 C         143.7277  144.5350  162.7315 C.3     1  UNL1        0.2356
     15 C         144.0871  143.0805  162.6589 C.ar    1  UNL1        0.0272
     16 C         143.9887  142.0765  161.5488 C.ar    1  UNL1       -0.0047
     17 C         144.4351  140.6625  161.7748 C.ar    1  UNL1       -0.0210
     18 C         144.9799  140.2524  163.1108 C.ar    1  UNL1       -0.0040
     19 C         145.0782  141.2563  164.2209 C.ar    1  UNL1        0.0059
     20 C         144.6318  142.6704  163.9950 C.ar    1  UNL1        0.0751
     21 C         137.7577  140.8144  164.3398 C.3     1  UNL1        0.1112
     22 C         138.7384  141.2328  165.3949 C.ar    1  UNL1       -0.0170
     23 C         139.4158  142.5679  165.3021 C.ar    1  UNL1       -0.0025
     24 C         140.3964  142.9863  166.3573 C.ar    1  UNL1        0.0189
     25 C         140.6996  142.0695  167.5052 C.ar    1  UNL1        0.0859
     26 C         140.0222  140.7345  167.5979 C.ar    1  UNL1        0.0147
     27 C         139.0416  140.3161  166.5428 C.ar    1  UNL1       -0.0245
     28 N         141.6803  142.4880  168.5603 N.ar    1  UNL1       -0.1886
     29 C         141.3551  143.2357  169.8194 C.ar    1  UNL1        0.2258
     30 N         142.6321  143.4420  170.5789 N.ar    1  UNL1       -0.1045
     31 N         143.7464  142.8218  169.7892 N.ar    1  UNL1       -0.0222
     32 N         143.1582  142.2322  168.5417 N.ar    1  UNL1       -0.0385
     33 C         138.3642  138.9809  166.6356 C.3     1  UNL1        0.0221
     34 C         138.2266  137.5594  166.1770 C.3     1  UNL1        0.0047
     35 C         137.3284  138.0900  167.2548 C.3     1  UNL1        0.0047
@<TRIPOS>BOND
     1    11    12    2
     2    12    13    1
     3    13    14    1
     4    14    15    1
     5    15    16   ar
     6    16    17   ar
     7    17    10    1
     8    10     9    1
     9     9     1    1
    10     1     2    1
    11     2     3    1
    12     3     4    1
    13     4     5   am
    14     5     6    2
    15     5    21    1
    16    21    22    1
    17    22    23   ar
    18    23    24   ar
    19    24    25   ar
    20    25    28    1
    21    28    29   ar
    22    29    30   ar
    23    30    31   ar
    24    31    32   ar
    25    25    26   ar
    26    26    27   ar
    27    27    33    1
    28    33    34    1
    29    34    35    1
    30     4     7    1
    31     7     8    1
    32    17    18   ar
    33    18    19   ar
    34    19    20   ar
    35    20    12    1
    36    20    15   ar
    37     8     1    1
    38    27    22   ar
    39    35    33    1
    40    32    28   ar
@<TRIPOS>MOLECULE
*****
 35 40 0 0 0
SMALL
GASTEIGER

@<TRIPOS>ATOM
      1 N         142.0444  138.6305  160.0942 N.3     1  UNL1       -0.2695
      2 C         141.1306  138.1649  161.1888 C.3     1  UNL1        0.0939
      3 C         141.5841  138.2178  162.6177 C.3     1  UNL1        0.1107
      4 N         142.9514  138.7361  162.9519 N.am    1  UNL1       -0.2764
      5 C         143.4049  138.7889  164.3807 C.2     1  UNL1        0.2301
      6 O         144.7722  139.3073  164.7150 O.2     1  UNL1       -0.2745
      7 C         143.8652  139.2017  161.8573 C.3     1  UNL1        0.1107
      8 C         143.4117  139.1489  160.4285 C.3     1  UNL1        0.0939
      9 C         141.5909  138.5777  158.6654 C.3     1  UNL1        0.0769
     10 C         140.9182  139.7676  158.0476 C.3     1  UNL1        0.0437
     11 O         140.3962  145.8794  161.6539 O.2     1  UNL1       -0.2449
     12 C         139.7208  144.5634  161.4049 C.2     1  UNL1        0.3413
     13 O         138.4334  144.1025  162.0214 O.3     1  UNL1       -0.4404
     14 C         138.1313  142.7315  161.4932 C.3     1  UNL1        0.2356
     15 C         139.2319  142.3450  160.5502 C.ar    1  UNL1        0.0272
     16 C         139.4665  141.1085  159.7342 C.ar    1  UNL1       -0.0047
     17 C         140.6835  141.0042  158.8637 C.ar    1  UNL1       -0.0210
     18 C         141.6660  142.1363  158.8091 C.ar    1  UNL1       -0.0040
     19 C         141.4314  143.3729  159.6251 C.ar    1  UNL1        0.0059
     20 C         140.2144  143.4772  160.4957 C.ar    1  UNL1        0.0751
     21 C         142.4910  138.3233  165.4753 C.3     1  UNL1        0.1112
     22 C         141.9425  139.3088  166.4643 C.ar    1  UNL1       -0.0170
     23 C         142.8688  140.0259  167.4011 C.ar    1  UNL1       -0.0025
     24 C         142.3203  141.0113  168.3900 C.ar    1  UNL1        0.0189
     25 C         140.8454  141.2796  168.4421 C.ar    1  UNL1        0.0859
     26 C         139.9190  140.5625  167.5053 C.ar    1  UNL1        0.0147
     27 C         140.4676  139.5771  166.5164 C.ar    1  UNL1       -0.0245
     28 N         140.2968  142.2651  169.4311 N.ar    1  UNL1       -0.1886
     29 C         140.6102  143.7312  169.4813 C.ar    1  UNL1        0.2258
     30 N         139.8457  144.3297  170.6247 N.ar    1  UNL1       -0.1045
     31 N         139.0599  143.2335  171.2811 N.ar    1  UNL1       -0.0222
     32 N         139.3387  141.9575  170.5435 N.ar    1  UNL1       -0.0385
     33 C         139.5413  138.8600  165.5795 C.3     1  UNL1        0.0221
     34 C         138.4685  138.8972  164.5317 C.3     1  UNL1        0.0047
     35 C         139.0096  137.5806  165.0047 C.3     1  UNL1        0.0047
@<TRIPOS>BOND
     1    11    12    2
     2    12    13    1
     3    13    14    1
     4    14    15    1
     5    15    16   ar
     6    16    17   ar
     7    17    10    1
     8    10     9    1
     9     9     1    1
    10     1     2    1
    11     2     3    1
    12     3     4    1
    13     4     5   am
    14     5     6    2
    15     5    21    1
    16    21    22    1
    17    22    23   ar
    18    23    24   ar
    19    24    25   ar
    20    25    28    1
    21    28    29   ar
    22    29    30   ar
    23    30    31   ar
    24    31    32   ar
    25    25    26   ar
    26    26    27   ar
    27    27    33    1
    28    33    34    1
    29    34    35    1
    30     4     7    1
    31     7     8    1
    32    17    18   ar
    33    18    19   ar
    34    19    20   ar
    35    20    12    1
    36    20    15   ar
    37     8     1    1
    38    27    22   ar
    39    35    33    1
    40    32    28   ar
@<TRIPOS>MOLECULE
*****
 35 40 0 0 0
SMALL
GASTEIGER

@<TRIPOS>ATOM
      1 N         139.6906  142.6236  159.0639 N.3     1  UNL1       -0.2695
      2 C         139.1295  142.9403  160.4185 C.3     1  UNL1        0.0939
      3 C         140.0141  143.5277  161.4781 C.3     1  UNL1        0.1107
      4 N         141.4597  143.7983  161.1830 N.am    1  UNL1       -0.2764
      5 C         142.3442  144.3856  162.2426 C.2     1  UNL1        0.2301
      6 O         143.7898  144.6563  161.9476 O.2     1  UNL1       -0.2745
      7 C         142.0207  143.4816  159.8285 C.3     1  UNL1        0.1107
      8 C         141.1363  142.8943  158.7689 C.3     1  UNL1        0.0939
      9 C         138.8061  142.0363  158.0044 C.3     1  UNL1        0.0769
     10 C         138.3002  140.6311  158.1438 C.3     1  UNL1        0.0437
     11 O         138.8279  137.1382  164.3207 O.2     1  UNL1       -0.2449
     12 C         139.5877  137.5351  163.0898 C.2     1  UNL1        0.3413
     13 O         141.0190  137.2002  162.7909 O.3     1  UNL1       -0.4404
     14 C         141.3654  137.7947  161.4580 C.3     1  UNL1        0.2356
     15 C         140.1483  138.4970  160.9331 C.ar    1  UNL1        0.0272
     16 C         139.8985  139.2618  159.6672 C.ar    1  UNL1       -0.0047
     17 C         138.5501  139.8662  159.4098 C.ar    1  UNL1       -0.0210
     18 C         137.4514  139.7057  160.4183 C.ar    1  UNL1       -0.0040
     19 C         137.7011  138.9409  161.6842 C.ar    1  UNL1        0.0059
     20 C         139.0496  138.3365  161.9417 C.ar    1  UNL1        0.0751
     21 C         141.7831  144.7023  163.5972 C.3     1  UNL1        0.1112
     22 C         142.0129  143.7616  164.7428 C.ar    1  UNL1       -0.0170
     23 C         143.4059  143.3239  165.0860 C.ar    1  UNL1       -0.0025
     24 C         143.6356  142.3832  166.2316 C.ar    1  UNL1        0.0189
     25 C         142.4722  141.8803  167.0339 C.ar    1  UNL1        0.0859
     26 C         141.0792  142.3180  166.6907 C.ar    1  UNL1        0.0147
     27 C         140.8495  143.2587  165.5451 C.ar    1  UNL1       -0.0245
     28 N         142.7020  140.9396  168.1795 N.ar    1  UNL1       -0.1886
     29 C         142.5486  139.4480  168.1399 C.ar    1  UNL1        0.2258
     30 N         142.8773  138.9118  169.5017 N.ar    1  UNL1       -0.1045
     31 N         143.2338  140.0722  170.3830 N.ar    1  UNL1       -0.0222
     32 N         143.1255  141.3253  169.5658 N.ar    1  UNL1       -0.0385
     33 C         139.4564  143.6964  165.2018 C.3     1  UNL1        0.0221
     34 C         138.0860  143.3786  164.6814 C.3     1  UNL1        0.0047
     35 C         138.4141  144.7725  165.1277 C.3     1  UNL1        0.0047
@<TRIPOS>BOND
     1    11    12    2
     2    12    13    1
     3    13    14    1
     4    14    15    1
     5    15    16   ar
     6    16    17   ar
     7    17    10    1
     8    10     9    1
     9     9     1    1
    10     1     2    1
    11     2     3    1
    12     3     4    1
    13     4     5   am
    14     5     6    2
    15     5    21    1
    16    21    22    1
    17    22    23   ar
    18    23    24   ar
    19    24    25   ar
    20    25    28    1
    21    28    29   ar
    22    29    30   ar
    23    30    31   ar
    24    31    32   ar
    25    25    26   ar
    26    26    27   ar
    27    27    33    1
    28    33    34    1
    29    34    35    1
    30     4     7    1
    31     7     8    1
    32    17    18   ar
    33    18    19   ar
    34    19    20   ar
    35    20    12    1
    36    20    15   ar
    37     8     1    1
    38    27    22   ar
    39    35    33    1
    40    32    28   ar
@<TRIPOS>MOLECULE
*****
 35 40 0 0 0
SMALL
GASTEIGER

@<TRIPOS>ATOM
      1 N         142.9383  139.7250  160.0016 N.3     1  UNL1       -0.2695
      2 C         143.5188  139.5004  161.3663 C.3     1  UNL1        0.0939
      3 C         142.6653  138.9289  162.4596 C.3     1  UNL1        0.1107
      4 N         141.2315  138.5820  162.1881 N.am    1  UNL1       -0.2764
      5 C         140.3782  138.0106  163.2813 C.2     1  UNL1        0.2301
      6 O         138.9443  137.6637  163.0098 O.2     1  UNL1       -0.2745
      7 C         140.6511  138.8066  160.8233 C.3     1  UNL1        0.1107
      8 C         141.5044  139.3780  159.7300 C.3     1  UNL1        0.0939
      9 C         143.7916  140.2964  158.9083 C.3     1  UNL1        0.0769
     10 C         144.0298  141.7757  158.8384 C.3     1  UNL1        0.0437
     11 O         139.1830  146.2428  161.5191 O.2     1  UNL1       -0.2449
     12 C         140.4666  145.5293  161.8249 C.2     1  UNL1        0.3413
     13 O         141.2361  145.6107  163.1098 O.3     1  UNL1       -0.4404
     14 C         142.4510  144.7408  162.9784 C.3     1  UNL1        0.2356
     15 C         142.4323  144.1218  161.6122 C.ar    1  UNL1        0.0272
     16 C         143.3736  143.1774  160.9253 C.ar    1  UNL1       -0.0047
     17 C         143.0885  142.7202  159.5254 C.ar    1  UNL1       -0.0210
     18 C         141.8620  143.2075  158.8125 C.ar    1  UNL1       -0.0040
     19 C         140.9207  144.1520  159.4994 C.ar    1  UNL1        0.0059
     20 C         141.2058  144.6091  160.8993 C.ar    1  UNL1        0.0751
     21 C         140.9587  137.7861  164.6461 C.3     1  UNL1        0.1112
     22 C         140.7635  138.8126  165.7223 C.ar    1  UNL1       -0.0170
     23 C         139.4001  139.3850  165.9745 C.ar    1  UNL1       -0.0025
     24 C         139.2050  140.4115  167.0506 C.ar    1  UNL1        0.0189
     25 C         140.3733  140.8656  167.8746 C.ar    1  UNL1        0.0859
     26 C         141.7366  140.2933  167.6225 C.ar    1  UNL1        0.0147
     27 C         141.9317  139.2668  166.5463 C.ar    1  UNL1       -0.0245
     28 N         140.1781  141.8922  168.9509 N.ar    1  UNL1       -0.1886
     29 C         139.7070  141.6245  170.3496 C.ar    1  UNL1        0.2258
     30 N         139.6575  142.9334  171.0805 N.ar    1  UNL1       -0.1045
     31 N         140.0980  144.0101  170.1334 N.ar    1  UNL1       -0.0222
     32 N         140.4197  143.3665  168.8173 N.ar    1  UNL1       -0.0385
     33 C         143.2951  138.6944  166.2941 C.3     1  UNL1        0.0221
     34 C         144.3596  137.6860  166.6106 C.3     1  UNL1        0.0047
     35 C         144.5921  138.7113  165.5407 C.3     1  UNL1        0.0047
@<TRIPOS>BOND
     1    11    12    2
     2    12    13    1
     3    13    14    1
     4    14    15    1
     5    15    16   ar
     6    16    17   ar
     7    17    10    1
     8    10     9    1
     9     9     1    1
    10     1     2    1
    11     2     3    1
    12     3     4    1
    13     4     5   am
    14     5     6    2
    15     5    21    1
    16    21    22    1
    17    22    23   ar
    18    23    24   ar
    19    24    25   ar
    20    25    28    1
    21    28    29   ar
    22    29    30   ar
    23    30    31   ar
    24    31    32   ar
    25    25    26   ar
    26    26    27   ar
    27    27    33    1
    28    33    34    1
    29    34    35    1
    30     4     7    1
    31     7     8    1
    32    17    18   ar
    33    18    19   ar
    34    19    20   ar
    35    20    12    1
    36    20    15   ar
    37     8     1    1
    38    27    22   ar
    39    35    33    1
    40    32    28   ar
@<TRIPOS>MOLECULE
*****
 35 40 0 0 0
SMALL
GASTEIGER

@<TRIPOS>ATOM
      1 N         142.3620  142.6937  159.6662 N.3     1  UNL1       -0.2695
      2 C         142.8539  143.2177  160.9828 C.3     1  UNL1        0.0939
      3 C         143.4106  142.2722  162.0056 C.3     1  UNL1        0.1107
      4 N         143.4754  140.8027  161.7118 N.am    1  UNL1       -0.2764
      5 C         144.0321  139.8573  162.7346 C.2     1  UNL1        0.2301
      6 O         144.0969  138.3877  162.4409 O.2     1  UNL1       -0.2745
      7 C         142.9835  140.2787  160.3952 C.3     1  UNL1        0.1107
      8 C         142.4268  141.2241  159.3724 C.3     1  UNL1        0.0939
      9 C         141.8053  143.6391  158.6434 C.3     1  UNL1        0.0769
     10 C         140.5389  144.3911  158.9278 C.3     1  UNL1        0.0437
     11 O         138.2112  145.1551  165.6083 O.2     1  UNL1       -0.2449
     12 C         138.1886  144.2409  164.4194 C.2     1  UNL1        0.3413
     13 O         137.4818  142.9205  164.3359 O.3     1  UNL1       -0.4404
     14 C         137.7251  142.3501  162.9701 C.3     1  UNL1        0.2356
     15 C         138.5823  143.3179  162.2095 C.ar    1  UNL1        0.0272
     16 C         139.1390  143.2861  160.8170 C.ar    1  UNL1       -0.0047
     17 C         139.9821  144.4228  160.3203 C.ar    1  UNL1       -0.0210
     18 C         140.2686  145.5914  161.2160 C.ar    1  UNL1       -0.0040
     19 C         139.7119  145.6233  162.6085 C.ar    1  UNL1        0.0059
     20 C         138.8687  144.4865  163.1052 C.ar    1  UNL1        0.0751
     21 C         144.5240  140.3813  164.0512 C.3     1  UNL1        0.1112
     22 C         143.6301  140.3423  165.2552 C.ar    1  UNL1       -0.0170
     23 C         143.0732  139.0343  165.7338 C.ar    1  UNL1       -0.0025
     24 C         142.1794  138.9953  166.9377 C.ar    1  UNL1        0.0189
     25 C         141.8424  140.2642  167.6631 C.ar    1  UNL1        0.0859
     26 C         142.3993  141.5722  167.1846 C.ar    1  UNL1        0.0147
     27 C         143.2932  141.6112  165.9806 C.ar    1  UNL1       -0.0245
     28 N         140.9486  140.2252  168.8671 N.ar    1  UNL1       -0.1886
     29 C         141.3560  140.5311  170.2780 C.ar    1  UNL1        0.2258
     30 N         140.1496  140.3684  171.1544 N.ar    1  UNL1       -0.1045
     31 N         138.9966  139.9618  170.2852 N.ar    1  UNL1       -0.0222
     32 N         139.4904  139.8733  168.8716 N.ar    1  UNL1       -0.0385
     33 C         143.8501  142.9193  165.5021 C.3     1  UNL1        0.0221
     34 C         143.7304  144.1486  164.6509 C.3     1  UNL1        0.0047
     35 C         144.9345  143.9554  165.5243 C.3     1  UNL1        0.0047
@<TRIPOS>BOND
     1    11    12    2
     2    12    13    1
     3    13    14    1
     4    14    15    1
     5    15    16   ar
     6    16    17   ar
     7    17    10    1
     8    10     9    1
     9     9     1    1
    10     1     2    1
    11     2     3    1
    12     3     4    1
    13     4     5   am
    14     5     6    2
    15     5    21    1
    16    21    22    1
    17    22    23   ar
    18    23    24   ar
    19    24    25   ar
    20    25    28    1
    21    28    29   ar
    22    29    30   ar
    23    30    31   ar
    24    31    32   ar
    25    25    26   ar
    26    26    27   ar
    27    27    33    1
    28    33    34    1
    29    34    35    1
    30     4     7    1
    31     7     8    1
    32    17    18   ar
    33    18    19   ar
    34    19    20   ar
    35    20    12    1
    36    20    15   ar
    37     8     1    1
    38    27    22   ar
    39    35    33    1
    40    32    28   ar
@<TRIPOS>MOLECULE
*****
 35 40 0 0 0
SMALL
GASTEIGER

@<TRIPOS>ATOM
      1 N         140.3340  145.0151  157.8355 N.3     1  UNL1       -0.2695
      2 C         141.1326  145.6805  158.9169 C.3     1  UNL1        0.0939
      3 C         141.1997  145.0679  160.2846 C.3     1  UNL1        0.1107
      4 N         140.4682  143.7900  160.5707 N.am    1  UNL1       -0.2764
      5 C         140.5353  143.1775  161.9383 C.2     1  UNL1        0.2301
      6 O         139.8038  141.8996  162.2245 O.2     1  UNL1       -0.2745
      7 C         139.6696  143.1247  159.4892 C.3     1  UNL1        0.1107
      8 C         139.6025  143.7371  158.1217 C.3     1  UNL1        0.0939
      9 C         140.2669  145.6276  156.4679 C.3     1  UNL1        0.0769
     10 C         139.0118  146.3116  156.0132 C.3     1  UNL1        0.0437
     11 O         138.6955  153.4061  155.5648 O.2     1  UNL1       -0.2449
     12 C         139.1174  152.1679  154.8307 C.2     1  UNL1        0.3413
     13 O         139.7371  152.1203  153.4656 O.3     1  UNL1       -0.4404
     14 C         139.9964  150.6828  153.1241 C.3     1  UNL1        0.2356
     15 C         139.5369  149.8421  154.2782 C.ar    1  UNL1        0.0272
     16 C         139.5429  148.3593  154.5050 C.ar    1  UNL1       -0.0047
     17 C         139.0058  147.7944  155.7865 C.ar    1  UNL1       -0.0210
     18 C         138.4625  148.7122  156.8412 C.ar    1  UNL1       -0.0040
     19 C         138.4565  150.1950  156.6145 C.ar    1  UNL1        0.0059
     20 C         138.9936  150.7599  155.3330 C.ar    1  UNL1        0.0751
     21 C         141.3338  143.8429  163.0197 C.3     1  UNL1        0.1112
     22 C         141.6523  143.0988  164.2827 C.ar    1  UNL1       -0.0170
     23 C         142.9524  142.3619  164.4114 C.ar    1  UNL1       -0.0025
     24 C         143.2708  141.6178  165.6743 C.ar    1  UNL1        0.0189
     25 C         142.2891  141.6106  166.8084 C.ar    1  UNL1        0.0859
     26 C         140.9890  142.3475  166.6797 C.ar    1  UNL1        0.0147
     27 C         140.6706  143.0916  165.4168 C.ar    1  UNL1       -0.0245
     28 N         142.6076  140.8665  168.0714 N.ar    1  UNL1       -0.1886
     29 C         143.1461  141.4665  169.3363 C.ar    1  UNL1        0.2258
     30 N         143.3148  140.3627  170.3378 N.ar    1  UNL1       -0.1045
     31 N         142.8805  139.0804  169.6918 N.ar    1  UNL1       -0.0222
     32 N         142.4435  139.3918  168.2911 N.ar    1  UNL1       -0.0385
     33 C         139.3704  143.8286  165.2879 C.3     1  UNL1        0.0221
     34 C         138.5144  145.0183  165.6069 C.3     1  UNL1        0.0047
     35 C         137.9745  143.9151  164.7459 C.3     1  UNL1        0.0047
@<TRIPOS>BOND
     1    11    12    2
     2    12    13    1
     3    13    14    1
     4    14    15    1
     5    15    16   ar
     6    16    17   ar
     7    17    10    1
     8    10     9    1
     9     9     1    1
    10     1     2    1
    11     2     3    1
    12     3     4    1
    13     4     5   am
    14     5     6    2
    15     5    21    1
    16    21    22    1
    17    22    23   ar
    18    23    24   ar
    19    24    25   ar
    20    25    28    1
    21    28    29   ar
    22    29    30   ar
    23    30    31   ar
    24    31    32   ar
    25    25    26   ar
    26    26    27   ar
    27    27    33    1
    28    33    34    1
    29    34    35    1
    30     4     7    1
    31     7     8    1
    32    17    18   ar
    33    18    19   ar
    34    19    20   ar
    35    20    12    1
    36    20    15   ar
    37     8     1    1
    38    27    22   ar
    39    35    33    1
    40    32    28   ar
@<TRIPOS>MOLECULE
*****
 35 40 0 0 0
SMALL
GASTEIGER

@<TRIPOS>ATOM
      1 N         139.8431  144.2740  158.6754 N.3     1  UNL1       -0.2695
      2 C         139.8283  142.9519  159.3838 C.3     1  UNL1        0.0939
      3 C         140.4289  142.8278  160.7528 C.3     1  UNL1        0.1107
      4 N         141.0442  144.0258  161.4133 N.am    1  UNL1       -0.2764
      5 C         141.6448  143.9016  162.7821 C.2     1  UNL1        0.2301
      6 O         142.2601  145.0996  163.4427 O.2     1  UNL1       -0.2745
      7 C         141.0590  145.3478  160.7048 C.3     1  UNL1        0.1107
      8 C         140.4584  145.4720  159.3359 C.3     1  UNL1        0.0939
      9 C         139.2425  144.3981  157.3065 C.3     1  UNL1        0.0769
     10 C         140.0808  144.8826  156.1609 C.3     1  UNL1        0.0437
     11 O         139.6170  151.3080  153.1391 O.2     1  UNL1       -0.2449
     12 C         139.2100  150.5068  154.3401 C.2     1  UNL1        0.3413
     13 O         138.3914  151.0030  155.4949 O.3     1  UNL1       -0.4404
     14 C         138.2257  149.8715  156.4656 C.3     1  UNL1        0.2356
     15 C         138.9420  148.6760  155.9108 C.ar    1  UNL1        0.0272
     16 C         139.1188  147.2807  156.4321 C.ar    1  UNL1       -0.0047
     17 C         139.9040  146.2780  155.6396 C.ar    1  UNL1       -0.0210
     18 C         140.5123  146.6706  154.3259 C.ar    1  UNL1       -0.0040
     19 C         140.3355  148.0659  153.8047 C.ar    1  UNL1        0.0059
     20 C         139.5503  149.0686  154.5971 C.ar    1  UNL1        0.0751
     21 C         141.6300  142.5796  163.4906 C.3     1  UNL1        0.1112
     22 C         141.5497  142.5318  164.9877 C.ar    1  UNL1       -0.0170
     23 C         142.7561  142.1465  165.7916 C.ar    1  UNL1       -0.0025
     24 C         142.6758  142.0987  167.2886 C.ar    1  UNL1        0.0189
     25 C         141.3891  142.4362  167.9818 C.ar    1  UNL1        0.0859
     26 C         140.1828  142.8214  167.1780 C.ar    1  UNL1        0.0147
     27 C         140.2631  142.8692  165.6810 C.ar    1  UNL1       -0.0245
     28 N         141.3089  142.3884  169.4790 N.ar    1  UNL1       -0.1886
     29 C         142.4653  142.4989  170.4279 C.ar    1  UNL1        0.2258
     30 N         141.9293  142.4005  171.8254 N.ar    1  UNL1       -0.1045
     31 N         140.4415  142.2292  171.7401 N.ar    1  UNL1       -0.0222
     32 N         140.0581  142.2218  170.2900 N.ar    1  UNL1       -0.0385
     33 C         139.0566  143.2545  164.8770 C.3     1  UNL1        0.0221
     34 C         138.2708  144.2901  164.1287 C.3     1  UNL1        0.0047
     35 C         137.7530  142.8862  164.2330 C.3     1  UNL1        0.0047
@<TRIPOS>BOND
     1    11    12    2
     2    12    13    1
     3    13    14    1
     4    14    15    1
     5    15    16   ar
     6    16    17   ar
     7    17    10    1
     8    10     9    1
     9     9     1    1
    10     1     2    1
    11     2     3    1
    12     3     4    1
    13     4     5   am
    14     5     6    2
    15     5    21    1
    16    21    22    1
    17    22    23   ar
    18    23    24   ar
    19    24    25   ar
    20    25    28    1
    21    28    29   ar
    22    29    30   ar
    23    30    31   ar
    24    31    32   ar
    25    25    26   ar
    26    26    27   ar
    27    27    33    1
    28    33    34    1
    29    34    35    1
    30     4     7    1
    31     7     8    1
    32    17    18   ar
    33    18    19   ar
    34    19    20   ar
    35    20    12    1
    36    20    15   ar
    37     8     1    1
    38    27    22   ar
    39    35    33    1
    40    32    28   ar
@<TRIPOS>MOLECULE
*****
 35 40 0 0 0
SMALL
GASTEIGER

@<TRIPOS>ATOM
      1 N         139.9458  139.8214  159.4912 N.3     1  UNL1       -0.2695
      2 C         139.8430  139.1552  160.8312 C.3     1  UNL1        0.0939
      3 C         139.1561  139.8554  161.9662 C.3     1  UNL1        0.1107
      4 N         138.5720  141.2217  161.7610 N.am    1  UNL1       -0.2764
      5 C         137.8852  141.9218  162.8959 C.2     1  UNL1        0.2301
      6 O         137.3010  143.2881  162.6908 O.2     1  UNL1       -0.2745
      7 C         138.6747  141.8878  160.4210 C.3     1  UNL1        0.1107
      8 C         139.3616  141.1877  159.2861 C.3     1  UNL1        0.0939
      9 C         140.6326  139.1213  158.3563 C.3     1  UNL1        0.0769
     10 C         142.0873  138.7707  158.4616 C.3     1  UNL1        0.0437
     11 O         145.4652  139.2123  164.7088 O.2     1  UNL1       -0.2449
     12 C         145.0622  139.9981  163.4963 C.2     1  UNL1        0.3413
     13 O         145.3539  141.4485  163.2487 O.3     1  UNL1       -0.4404
     14 C         144.7688  141.8183  161.9179 C.3     1  UNL1        0.2356
     15 C         144.1155  140.5964  161.3431 C.ar    1  UNL1        0.0272
     16 C         143.3790  140.3629  160.0575 C.ar    1  UNL1       -0.0047
     17 C         142.8238  139.0044  159.7473 C.ar    1  UNL1       -0.0210
     18 C         143.0052  137.8794  160.7229 C.ar    1  UNL1       -0.0040
     19 C         143.7417  138.1130  162.0085 C.ar    1  UNL1        0.0059
     20 C         144.2969  139.4715  162.3186 C.ar    1  UNL1        0.0751
     21 C         137.7824  141.2557  164.2360 C.3     1  UNL1        0.1112
     22 C         138.7842  141.5685  165.3078 C.ar    1  UNL1       -0.0170
     23 C         139.3606  142.9491  165.4157 C.ar    1  UNL1       -0.0025
     24 C         140.3623  143.2619  166.4875 C.ar    1  UNL1        0.0189
     25 C         140.7875  142.1941  167.4513 C.ar    1  UNL1        0.0859
     26 C         140.2111  140.8136  167.3434 C.ar    1  UNL1        0.0147
     27 C         139.2094  140.5008  166.2717 C.ar    1  UNL1       -0.0245
     28 N         141.7892  142.5070  168.5232 N.ar    1  UNL1       -0.1886
     29 C         141.4751  142.8841  169.9406 C.ar    1  UNL1        0.2258
     30 N         142.7726  143.1079  170.6592 N.ar    1  UNL1       -0.1045
     31 N         143.8887  142.8690  169.6858 N.ar    1  UNL1       -0.0222
     32 N         143.2809  142.4976  168.3657 N.ar    1  UNL1       -0.0385
     33 C         138.6329  139.1201  166.1637 C.3     1  UNL1        0.0221
     34 C         138.5573  137.7949  165.4651 C.3     1  UNL1        0.0047
     35 C         137.7100  138.0541  166.6754 C.3     1  UNL1        0.0047
@<TRIPOS>BOND
     1    11    12    2
     2    12    13    1
     3    13    14    1
     4    14    15    1
     5    15    16   ar
     6    16    17   ar
     7    17    10    1
     8    10     9    1
     9     9     1    1
    10     1     2    1
    11     2     3    1
    12     3     4    1
    13     4     5   am
    14     5     6    2
    15     5    21    1
    16    21    22    1
    17    22    23   ar
    18    23    24   ar
    19    24    25   ar
    20    25    28    1
    21    28    29   ar
    22    29    30   ar
    23    30    31   ar
    24    31    32   ar
    25    25    26   ar
    26    26    27   ar
    27    27    33    1
    28    33    34    1
    29    34    35    1
    30     4     7    1
    31     7     8    1
    32    17    18   ar
    33    18    19   ar
    34    19    20   ar
    35    20    12    1
    36    20    15   ar
    37     8     1    1
    38    27    22   ar
    39    35    33    1
    40    32    28   ar
