@<TRIPOS>MOLECULE
*****
 35 39 0 0 0
SMALL
GASTEIGER

@<TRIPOS>ATOM
      1 C         139.2278  139.0466  166.0867 C.3     1  UNL1        0.0545
      2 C         138.5007  139.4521  167.3345 C.3     1  UNL1        0.0163
      3 C         139.5082  140.0019  168.3002 C.3     1  UNL1        0.0123
      4 C         139.6816  140.5922  169.6682 C.3     1  UNL1        0.0358
      5 C         141.1385  140.8914  169.8627 C.3     1  UNL1        0.1615
      6 F         141.7594  141.4908  171.0896 F       1  UNL1       -0.2373
      7 C         141.8656  140.4860  168.6149 C.3     1  UNL1        0.0439
      8 C         140.8581  139.9362  167.6492 C.3     1  UNL1        0.0731
      9 C         140.6847  139.3458  166.2813 C.3     1  UNL1        0.0244
     10 C         142.2079  139.8705  166.9983 C.2     1  UNL1        0.2251
     11 O         143.2254  138.8792  167.4799 O.2     1  UNL1       -0.2749
     12 N         142.5402  140.7962  165.8657 N.am    1  UNL1       -0.2750
     13 C         143.8899  140.7305  165.2147 C.3     1  UNL1        0.1000
     14 C         144.2222  141.6561  164.0822 C.3     1  UNL1        0.0670
     15 C         143.2047  142.6474  163.6005 C.ar    1  UNL1        0.0583
     16 N         143.5370  143.5731  162.4679 N.ar    1  UNL1       -0.2484
     17 C         142.5195  144.5644  161.9863 C.ar    1  UNL1        0.1023
     18 C         141.1697  144.6301  162.6373 C.ar    1  UNL1        0.0902
     19 C         140.8374  143.7045  163.7699 C.ar    1  UNL1        0.0040
     20 C         141.8549  142.7131  164.2515 C.ar    1  UNL1        0.0113
     21 C         141.5227  141.7875  165.3840 C.3     1  UNL1        0.1213
     22 C         140.1522  145.6214  162.1557 C.3     1  UNL1        0.4200
     23 F         139.1347  146.6128  161.6741 F       1  UNL1       -0.1658
     24 F         139.3925  145.4654  163.4396 F       1  UNL1       -0.1658
     25 F         140.9120  145.7775  160.8718 F       1  UNL1       -0.1658
     26 N         138.6069  138.4472  164.8598 N.3     1  UNL1       -0.2975
     27 H         139.1265  137.5940  164.6537 H       1  UNL1        0.1232
     28 C         139.2441  138.7305  162.3570 C.3     1  UNL1        0.1591
     29 C         139.1864  139.5206  161.0833 C.3     1  UNL1        0.1729
     30 O         138.4341  140.8175  161.0385 O.3     1  UNL1       -0.3511
     31 C         137.7393  141.3243  162.2675 C.3     1  UNL1        0.1437
     32 C         137.7969  140.5342  163.5413 C.3     1  UNL1        0.0503
     33 C         138.5493  139.2373  163.5860 C.3     1  UNL1        0.0865
     34 C         141.3997  137.3985  162.9306 C.3     1  UNL1        0.1742
     35 O         139.9964  137.4337  162.4018 O.3     1  UNL1       -0.3496
@<TRIPOS>BOND
     1    34    35    1
     2    35    28    1
     3    28    29    1
     4    29    30    1
     5    30    31    1
     6    31    32    1
     7    32    33    1
     8    33    26    1
     9     1    26    1
    10     1     2    1
    11     3     2    1
    12     3     4    1
    13     4     5    1
    14     5     6    1
    15     5     7    1
    16     7     8    1
    17     8    10    1
    18    10    11    2
    19    10    12   am
    20    12    13    1
    21    13    14    1
    22    14    15    1
    23    15    16   ar
    24    16    17   ar
    25    17    18   ar
    26    18    22    1
    27    22    23    1
    28    22    24    1
    29    22    25    1
    30    18    19   ar
    31    19    20   ar
    32    20    21    1
    33     8     9    1
    34    33    28    1
    35     9     1    1
    36     8     3    1
    37    21    12    1
    38    20    15   ar
    39    26    27    1
@<TRIPOS>MOLECULE
*****
 35 39 0 0 0
SMALL
GASTEIGER

@<TRIPOS>ATOM
      1 C         140.5946  137.6318  163.7966 C.3     1  UNL1        0.0545
      2 C         139.1839  137.5391  164.2978 C.3     1  UNL1        0.0163
      3 C         139.0975  138.3064  165.5838 C.3     1  UNL1        0.0123
      4 C         138.1723  138.7233  166.6884 C.3     1  UNL1        0.0358
      5 C         138.9578  139.5479  167.6646 C.3     1  UNL1        0.1615
      6 F         138.4260  140.1705  168.9215 F       1  UNL1       -0.2373
      7 C         140.3686  139.6406  167.1634 C.3     1  UNL1        0.0439
      8 C         140.4549  138.8733  165.8774 C.3     1  UNL1        0.0731
      9 C         141.3802  138.4564  164.7728 C.3     1  UNL1        0.0244
     10 C         141.8123  139.4402  166.1709 C.2     1  UNL1        0.2251
     11 O         142.7880  138.6591  167.0002 O.2     1  UNL1       -0.2749
     12 N         142.1940  140.7883  165.6351 N.am    1  UNL1       -0.2750
     13 C         143.5513  141.3552  165.9287 C.3     1  UNL1        0.1000
     14 C         143.9329  142.7033  165.3929 C.3     1  UNL1        0.0670
     15 C         142.9572  143.4844  164.5636 C.ar    1  UNL1        0.0583
     16 N         143.3389  144.8325  164.0278 N.ar    1  UNL1       -0.2484
     17 C         142.3632  145.6137  163.1985 C.ar    1  UNL1        0.1023
     18 C         141.0058  145.0467  162.9049 C.ar    1  UNL1        0.0902
     19 C         140.6241  143.6987  163.4407 C.ar    1  UNL1        0.0040
     20 C         141.5999  142.9175  164.2700 C.ar    1  UNL1        0.0113
     21 C         141.2182  141.5695  164.8058 C.3     1  UNL1        0.1213
     22 C         140.0300  145.8279  162.0756 C.3     1  UNL1        0.4200
     23 F         139.0543  146.6090  161.2463 F       1  UNL1       -0.1658
     24 F         139.0305  145.7648  163.1922 F       1  UNL1       -0.1658
     25 F         141.0296  145.8909  160.9590 F       1  UNL1       -0.1658
     26 N         141.1265  137.0093  162.5397 N.3     1  UNL1       -0.2975
     27 H         141.7693  136.2709  162.8261 H       1  UNL1        0.1232
     28 C         141.1086  138.4636  160.3869 C.3     1  UNL1        0.1591
     29 C         141.8372  139.3065  159.3826 C.3     1  UNL1        0.1729
     30 O         143.3121  139.5381  159.5267 O.3     1  UNL1       -0.3511
     31 C         144.0586  138.9267  160.6752 C.3     1  UNL1        0.1437
     32 C         143.3301  138.0837  161.6796 C.3     1  UNL1        0.0503
     33 C         141.8551  137.8522  161.5354 C.3     1  UNL1        0.0865
     34 C         138.6600  139.1821  160.8748 C.3     1  UNL1        0.1742
     35 O         139.6337  138.2320  160.2428 O.3     1  UNL1       -0.3496
@<TRIPOS>BOND
     1    34    35    1
     2    35    28    1
     3    28    29    1
     4    29    30    1
     5    30    31    1
     6    31    32    1
     7    32    33    1
     8    33    26    1
     9     1    26    1
    10     1     2    1
    11     3     2    1
    12     3     4    1
    13     4     5    1
    14     5     6    1
    15     5     7    1
    16     7     8    1
    17     8    10    1
    18    10    11    2
    19    10    12   am
    20    12    13    1
    21    13    14    1
    22    14    15    1
    23    15    16   ar
    24    16    17   ar
    25    17    18   ar
    26    18    22    1
    27    22    23    1
    28    22    24    1
    29    22    25    1
    30    18    19   ar
    31    19    20   ar
    32    20    21    1
    33     8     9    1
    34    33    28    1
    35     9     1    1
    36     8     3    1
    37    21    12    1
    38    20    15   ar
    39    26    27    1
@<TRIPOS>MOLECULE
*****
 35 39 0 0 0
SMALL
GASTEIGER

@<TRIPOS>ATOM
      1 C         139.4078  139.7980  167.8541 C.3     1  UNL1        0.0545
      2 C         138.3720  139.0713  167.0485 C.3     1  UNL1        0.0163
      3 C         139.0295  138.5607  165.8007 C.3     1  UNL1        0.0123
      4 C         138.7957  137.7959  164.5316 C.3     1  UNL1        0.0358
      5 C         140.0934  137.7344  163.7817 C.3     1  UNL1        0.1615
      6 F         140.3161  137.0639  162.4585 F       1  UNL1       -0.2373
      7 C         141.1292  138.4611  164.5873 C.3     1  UNL1        0.0439
      8 C         140.4717  138.9718  165.8351 C.3     1  UNL1        0.0731
      9 C         140.7055  139.7365  167.1042 C.3     1  UNL1        0.0244
     10 C         141.9138  139.3829  165.8696 C.2     1  UNL1        0.2251
     11 O         142.9265  138.5100  166.5497 O.2     1  UNL1       -0.2749
     12 N         142.3433  140.6669  165.2239 N.am    1  UNL1       -0.2750
     13 C         143.7854  141.0781  165.2584 C.3     1  UNL1        0.1000
     14 C         144.2149  142.3621  164.6128 C.3     1  UNL1        0.0670
     15 C         143.2022  143.2349  163.9327 C.ar    1  UNL1        0.0583
     16 N         143.6317  144.5190  163.2870 N.ar    1  UNL1       -0.2484
     17 C         142.6190  145.3919  162.6069 C.ar    1  UNL1        0.1023
     18 C         141.1768  144.9807  162.5725 C.ar    1  UNL1        0.0902
     19 C         140.7474  143.6967  163.2181 C.ar    1  UNL1        0.0040
     20 C         141.7601  142.8238  163.8982 C.ar    1  UNL1        0.0113
     21 C         141.3306  141.5398  164.5438 C.3     1  UNL1        0.1213
     22 C         140.1641  145.8536  161.8924 C.3     1  UNL1        0.4200
     23 F         139.1514  146.7265  161.2123 F       1  UNL1       -0.1658
     24 F         139.3131  145.8285  163.1274 F       1  UNL1       -0.1658
     25 F         141.0151  145.8788  160.6575 F       1  UNL1       -0.1658
     26 N         139.1851  140.4685  169.1773 N.3     1  UNL1       -0.2975
     27 H         138.2937  140.9599  169.1120 H       1  UNL1        0.1232
     28 C         141.3719  140.9809  170.4831 C.3     1  UNL1        0.1591
     29 C         142.3743  141.9693  171.0012 C.3     1  UNL1        0.1729
     30 O         142.1923  143.4335  170.7316 O.3     1  UNL1       -0.3511
     31 C         141.0078  143.9095  169.9438 C.3     1  UNL1        0.1437
     32 C         140.0054  142.9212  169.4257 C.3     1  UNL1        0.0503
     33 C         140.1875  141.4568  169.6954 C.3     1  UNL1        0.0865
     34 C         142.6253  138.7495  170.0360 C.3     1  UNL1        0.1742
     35 O         141.5539  139.5167  170.7528 O.3     1  UNL1       -0.3496
@<TRIPOS>BOND
     1    34    35    1
     2    35    28    1
     3    28    29    1
     4    29    30    1
     5    30    31    1
     6    31    32    1
     7    32    33    1
     8    33    26    1
     9     1    26    1
    10     1     2    1
    11     3     2    1
    12     3     4    1
    13     4     5    1
    14     5     6    1
    15     5     7    1
    16     7     8    1
    17     8    10    1
    18    10    11    2
    19    10    12   am
    20    12    13    1
    21    13    14    1
    22    14    15    1
    23    15    16   ar
    24    16    17   ar
    25    17    18   ar
    26    18    22    1
    27    22    23    1
    28    22    24    1
    29    22    25    1
    30    18    19   ar
    31    19    20   ar
    32    20    21    1
    33     8     9    1
    34    33    28    1
    35     9     1    1
    36     8     3    1
    37    21    12    1
    38    20    15   ar
    39    26    27    1
@<TRIPOS>MOLECULE
*****
 35 39 0 0 0
SMALL
GASTEIGER

@<TRIPOS>ATOM
      1 C         141.2960  141.5978  161.9492 C.3     1  UNL1        0.0545
      2 C         141.0982  143.0513  161.6361 C.3     1  UNL1        0.0163
      3 C         139.7824  143.4759  162.2180 C.3     1  UNL1        0.0123
      4 C         138.8470  144.6366  162.3842 C.3     1  UNL1        0.0358
      5 C         137.6535  144.1628  163.1596 C.3     1  UNL1        0.1615
      6 F         136.4700  144.9963  163.5529 F       1  UNL1       -0.2373
      7 C         137.8514  142.7092  163.4727 C.3     1  UNL1        0.0439
      8 C         139.1671  142.2847  162.8908 C.3     1  UNL1        0.0731
      9 C         140.1026  141.1240  162.7246 C.3     1  UNL1        0.0244
     10 C         138.5518  141.0935  163.5634 C.2     1  UNL1        0.2251
     11 O         137.5996  140.2144  162.8082 O.2     1  UNL1       -0.2749
     12 N         138.8889  140.7814  164.9914 N.am    1  UNL1       -0.2750
     13 C         138.2736  139.5902  165.6641 C.3     1  UNL1        0.1000
     14 C         138.6106  139.2781  167.0920 C.3     1  UNL1        0.0670
     15 C         139.5629  140.1572  167.8472 C.ar    1  UNL1        0.0583
     16 N         139.8999  139.8451  169.2752 N.ar    1  UNL1       -0.2484
     17 C         140.8522  140.7242  170.0305 C.ar    1  UNL1        0.1023
     18 C         141.4674  141.9154  169.3577 C.ar    1  UNL1        0.0902
     19 C         141.1304  142.2275  167.9298 C.ar    1  UNL1        0.0040
     20 C         140.1781  141.3484  167.1746 C.ar    1  UNL1        0.0113
     21 C         139.8411  141.6605  165.7467 C.3     1  UNL1        0.1213
     22 C         142.4197  142.7945  170.1130 C.3     1  UNL1        0.4200
     23 F         143.3720  143.6736  170.8682 F       1  UNL1       -0.1658
     24 F         141.4212  143.9130  170.0700 F       1  UNL1       -0.1658
     25 F         143.4182  141.6759  170.1559 F       1  UNL1       -0.1658
     26 N         142.4796  140.7643  161.5559 N.3     1  UNL1       -0.2975
     27 H         142.1371  139.8136  161.4170 H       1  UNL1        0.1232
     28 C         143.8027  139.5003  163.4002 C.3     1  UNL1        0.1591
     29 C         144.9890  139.4042  164.3132 C.3     1  UNL1        0.1729
     30 O         146.0383  140.4759  164.2949 O.3     1  UNL1       -0.3511
     31 C         145.9014  141.6438  163.3636 C.3     1  UNL1        0.1437
     32 C         144.7151  141.7399  162.4506 C.3     1  UNL1        0.0503
     33 C         143.6658  140.6681  162.4689 C.3     1  UNL1        0.0865
     34 C         141.8091  138.3232  164.5792 C.3     1  UNL1        0.1742
     35 O         142.7534  138.4286  163.4184 O.3     1  UNL1       -0.3496
@<TRIPOS>BOND
     1    34    35    1
     2    35    28    1
     3    28    29    1
     4    29    30    1
     5    30    31    1
     6    31    32    1
     7    32    33    1
     8    33    26    1
     9     1    26    1
    10     1     2    1
    11     3     2    1
    12     3     4    1
    13     4     5    1
    14     5     6    1
    15     5     7    1
    16     7     8    1
    17     8    10    1
    18    10    11    2
    19    10    12   am
    20    12    13    1
    21    13    14    1
    22    14    15    1
    23    15    16   ar
    24    16    17   ar
    25    17    18   ar
    26    18    22    1
    27    22    23    1
    28    22    24    1
    29    22    25    1
    30    18    19   ar
    31    19    20   ar
    32    20    21    1
    33     8     9    1
    34    33    28    1
    35     9     1    1
    36     8     3    1
    37    21    12    1
    38    20    15   ar
    39    26    27    1
@<TRIPOS>MOLECULE
*****
 35 39 0 0 0
SMALL
GASTEIGER

@<TRIPOS>ATOM
      1 C         140.6145  144.1041  160.9167 C.3     1  UNL1        0.0545
      2 C         140.6778  145.2105  161.9275 C.3     1  UNL1        0.0163
      3 C         141.8524  144.9526  162.8241 C.3     1  UNL1        0.0123
      4 C         142.6174  145.4769  164.0029 C.3     1  UNL1        0.0358
      5 C         143.7529  144.5352  164.2747 C.3     1  UNL1        0.1615
      6 F         144.7727  144.6753  165.3659 F       1  UNL1       -0.2373
      7 C         143.6896  143.4288  163.2638 C.3     1  UNL1        0.0439
      8 C         142.5150  143.6867  162.3673 C.3     1  UNL1        0.0731
      9 C         141.7500  143.1623  161.1885 C.3     1  UNL1        0.0244
     10 C         143.1777  142.4209  161.9105 C.2     1  UNL1        0.2251
     11 O         144.3438  142.4823  160.9691 O.2     1  UNL1       -0.2749
     12 N         142.6741  141.0936  162.3952 N.am    1  UNL1       -0.2750
     13 C         143.3367  139.8278  161.9384 C.3     1  UNL1        0.1000
     14 C         142.8331  138.5006  162.4230 C.3     1  UNL1        0.0670
     15 C         141.6670  138.4392  163.3644 C.ar    1  UNL1        0.0583
     16 N         141.1634  137.1119  163.8491 N.ar    1  UNL1       -0.2484
     17 C         139.9972  137.0505  164.7905 C.ar    1  UNL1        0.1023
     18 C         139.3346  138.3164  165.2473 C.ar    1  UNL1        0.0902
     19 C         139.8382  139.6436  164.7626 C.ar    1  UNL1        0.0040
     20 C         141.0043  139.7050  163.8212 C.ar    1  UNL1        0.0113
     21 C         141.5079  141.0322  163.3366 C.3     1  UNL1        0.1213
     22 C         138.1684  138.2550  166.1887 C.3     1  UNL1        0.4200
     23 F         137.0022  138.1936  167.1301 F       1  UNL1       -0.1658
     24 F         138.1630  136.7586  166.0843 F       1  UNL1       -0.1658
     25 F         138.1738  139.7514  166.2930 F       1  UNL1       -0.1658
     26 N         139.5947  143.9639  159.8255 N.3     1  UNL1       -0.2975
     27 H         138.7675  144.4784  160.1278 H       1  UNL1        0.1232
     28 C         138.2434  141.7992  160.3131 C.3     1  UNL1        0.1591
     29 C         137.7767  140.4369  159.8932 C.3     1  UNL1        0.1729
     30 O         138.1945  139.8770  158.5659 O.3     1  UNL1       -0.3511
     31 C         139.0791  140.6795  157.6583 C.3     1  UNL1        0.1437
     32 C         139.5459  142.0418  158.0782 C.3     1  UNL1        0.0503
     33 C         139.1280  142.6016  159.4056 C.3     1  UNL1        0.0865
     34 C         137.3758  141.4374  162.7352 C.3     1  UNL1        0.1742
     35 O         137.8255  142.3591  161.6405 O.3     1  UNL1       -0.3496
@<TRIPOS>BOND
     1    34    35    1
     2    35    28    1
     3    28    29    1
     4    29    30    1
     5    30    31    1
     6    31    32    1
     7    32    33    1
     8    33    26    1
     9     1    26    1
    10     1     2    1
    11     3     2    1
    12     3     4    1
    13     4     5    1
    14     5     6    1
    15     5     7    1
    16     7     8    1
    17     8    10    1
    18    10    11    2
    19    10    12   am
    20    12    13    1
    21    13    14    1
    22    14    15    1
    23    15    16   ar
    24    16    17   ar
    25    17    18   ar
    26    18    22    1
    27    22    23    1
    28    22    24    1
    29    22    25    1
    30    18    19   ar
    31    19    20   ar
    32    20    21    1
    33     8     9    1
    34    33    28    1
    35     9     1    1
    36     8     3    1
    37    21    12    1
    38    20    15   ar
    39    26    27    1
@<TRIPOS>MOLECULE
*****
 35 39 0 0 0
SMALL
GASTEIGER

@<TRIPOS>ATOM
      1 C         140.9062  141.4829  160.1048 C.3     1  UNL1        0.0545
      2 C         140.9571  140.1641  159.3919 C.3     1  UNL1        0.0163
      3 C         142.0644  139.3528  159.9967 C.3     1  UNL1        0.0123
      4 C         142.7802  138.0364  159.9299 C.3     1  UNL1        0.0358
      5 C         143.8560  138.0401  160.9753 C.3     1  UNL1        0.1615
      6 F         144.8145  136.9214  161.2581 F       1  UNL1       -0.2373
      7 C         143.8051  139.3589  161.6881 C.3     1  UNL1        0.0439
      8 C         142.6978  140.1702  161.0833 C.3     1  UNL1        0.0731
      9 C         141.9820  141.4867  161.1501 C.3     1  UNL1        0.0244
     10 C         143.3311  140.9876  162.1699 C.2     1  UNL1        0.2251
     11 O         144.5601  141.7973  161.8799 O.2     1  UNL1       -0.2749
     12 N         142.7355  140.9954  163.5466 N.am    1  UNL1       -0.2750
     13 C         143.3688  141.8128  164.6332 C.3     1  UNL1        0.1000
     14 C         142.7732  141.8206  166.0098 C.3     1  UNL1        0.0670
     15 C         141.5442  141.0110  166.2998 C.ar    1  UNL1        0.0583
     16 N         140.9486  141.0188  167.6765 N.ar    1  UNL1       -0.2484
     17 C         139.7196  140.2091  167.9666 C.ar    1  UNL1        0.1023
     18 C         139.0863  139.3917  166.8799 C.ar    1  UNL1        0.0902
     19 C         139.6819  139.3840  165.5033 C.ar    1  UNL1        0.0040
     20 C         140.9109  140.1936  165.2132 C.ar    1  UNL1        0.0113
     21 C         141.5065  140.1858  163.8366 C.3     1  UNL1        0.1213
     22 C         137.8573  138.5821  167.1699 C.3     1  UNL1        0.4200
     23 F         136.6283  137.7725  167.4599 F       1  UNL1       -0.1658
     24 F         137.7077  139.2814  168.4885 F       1  UNL1       -0.1658
     25 F         138.0068  137.8828  165.8514 F       1  UNL1       -0.1658
     26 N         139.9477  142.6016  159.8219 N.3     1  UNL1       -0.2975
     27 H         140.3644  143.1664  159.0818 H       1  UNL1        0.1232
     28 C         138.4000  143.2139  161.8168 C.3     1  UNL1        0.1591
     29 C         138.0061  144.1591  162.9129 C.3     1  UNL1        0.1729
     30 O         138.7659  145.4373  163.1102 O.3     1  UNL1       -0.3511
     31 C         139.9197  145.7703  162.2113 C.3     1  UNL1        0.1437
     32 C         140.3136  144.8251  161.1152 C.3     1  UNL1        0.0503
     33 C         139.5538  143.5469  160.9180 C.3     1  UNL1        0.0865
     34 C         137.9895  140.7228  162.4301 C.3     1  UNL1        0.1742
     35 O         137.6402  141.9358  161.6196 O.3     1  UNL1       -0.3496
@<TRIPOS>BOND
     1    34    35    1
     2    35    28    1
     3    28    29    1
     4    29    30    1
     5    30    31    1
     6    31    32    1
     7    32    33    1
     8    33    26    1
     9     1    26    1
    10     1     2    1
    11     3     2    1
    12     3     4    1
    13     4     5    1
    14     5     6    1
    15     5     7    1
    16     7     8    1
    17     8    10    1
    18    10    11    2
    19    10    12   am
    20    12    13    1
    21    13    14    1
    22    14    15    1
    23    15    16   ar
    24    16    17   ar
    25    17    18   ar
    26    18    22    1
    27    22    23    1
    28    22    24    1
    29    22    25    1
    30    18    19   ar
    31    19    20   ar
    32    20    21    1
    33     8     9    1
    34    33    28    1
    35     9     1    1
    36     8     3    1
    37    21    12    1
    38    20    15   ar
    39    26    27    1
@<TRIPOS>MOLECULE
*****
 35 39 0 0 0
SMALL
GASTEIGER

@<TRIPOS>ATOM
      1 C         140.6781  141.7649  161.2443 C.3     1  UNL1        0.0545
      2 C         142.1014  141.7836  160.7711 C.3     1  UNL1        0.0163
      3 C         142.6782  140.4152  160.9826 C.3     1  UNL1        0.0123
      4 C         143.9143  139.5810  160.8209 C.3     1  UNL1        0.0358
      5 C         143.6114  138.2010  161.3248 C.3     1  UNL1        0.1615
      6 F         144.5646  137.0430  161.3509 F       1  UNL1       -0.2373
      7 C         142.1881  138.1823  161.7979 C.3     1  UNL1        0.0439
      8 C         141.6113  139.5507  161.5864 C.3     1  UNL1        0.0731
      9 C         140.3753  140.3849  161.7481 C.3     1  UNL1        0.0244
     10 C         140.5445  138.6863  162.1902 C.2     1  UNL1        0.2251
     11 O         139.8778  137.6287  161.3614 O.2     1  UNL1       -0.2749
     12 N         140.1443  138.8795  163.6230 N.am    1  UNL1       -0.2750
     13 C         139.0775  138.0151  164.2268 C.3     1  UNL1        0.1000
     14 C         138.6774  138.2082  165.6594 C.3     1  UNL1        0.0670
     15 C         139.3441  139.2658  166.4883 C.ar    1  UNL1        0.0583
     16 N         138.9440  139.4590  167.9210 N.ar    1  UNL1       -0.2484
     17 C         139.6107  140.5166  168.7498 C.ar    1  UNL1        0.1023
     18 C         140.6776  141.3810  168.1460 C.ar    1  UNL1        0.0902
     19 C         141.0777  141.1878  166.7133 C.ar    1  UNL1        0.0040
     20 C         140.4110  140.1302  165.8845 C.ar    1  UNL1        0.0113
     21 C         140.8111  139.9371  164.4518 C.3     1  UNL1        0.1213
     22 C         141.3443  142.4386  168.9748 C.3     1  UNL1        0.4200
     23 F         142.0110  143.4962  169.8036 F       1  UNL1       -0.1658
     24 F         140.0024  143.0111  169.3237 F       1  UNL1       -0.1658
     25 F         142.6861  141.8662  168.6259 F       1  UNL1       -0.1658
     26 N         139.7250  142.9229  161.2181 N.3     1  UNL1       -0.2975
     27 H         140.2195  143.7016  160.7828 H       1  UNL1        0.1232
     28 C         139.8041  144.5787  163.2186 C.3     1  UNL1        0.1591
     29 C         139.2199  145.0982  164.4988 C.3     1  UNL1        0.1729
     30 O         137.9724  144.4816  165.0586 O.3     1  UNL1       -0.3511
     31 C         137.3090  143.3453  164.3382 C.3     1  UNL1        0.1437
     32 C         137.8932  142.8258  163.0580 C.3     1  UNL1        0.0503
     33 C         139.1408  143.4425  162.4983 C.3     1  UNL1        0.0865
     34 C         142.3966  144.7204  163.1234 C.3     1  UNL1        0.1742
     35 O         141.0517  145.1953  162.6589 O.3     1  UNL1       -0.3496
@<TRIPOS>BOND
     1    34    35    1
     2    35    28    1
     3    28    29    1
     4    29    30    1
     5    30    31    1
     6    31    32    1
     7    32    33    1
     8    33    26    1
     9     1    26    1
    10     1     2    1
    11     3     2    1
    12     3     4    1
    13     4     5    1
    14     5     6    1
    15     5     7    1
    16     7     8    1
    17     8    10    1
    18    10    11    2
    19    10    12   am
    20    12    13    1
    21    13    14    1
    22    14    15    1
    23    15    16   ar
    24    16    17   ar
    25    17    18   ar
    26    18    22    1
    27    22    23    1
    28    22    24    1
    29    22    25    1
    30    18    19   ar
    31    19    20   ar
    32    20    21    1
    33     8     9    1
    34    33    28    1
    35     9     1    1
    36     8     3    1
    37    21    12    1
    38    20    15   ar
    39    26    27    1
@<TRIPOS>MOLECULE
*****
 35 39 0 0 0
SMALL
GASTEIGER

@<TRIPOS>ATOM
      1 C         140.2198  142.2561  160.9318 C.3     1  UNL1        0.0545
      2 C         138.7408  142.0754  160.7592 C.3     1  UNL1        0.0163
      3 C         138.4052  140.6528  161.0960 C.3     1  UNL1        0.0123
      4 C         137.2837  139.6618  161.1975 C.3     1  UNL1        0.0358
      5 C         137.8622  138.3508  161.6410 C.3     1  UNL1        0.1615
      6 F         137.0961  137.0819  161.8714 F       1  UNL1       -0.2373
      7 C         139.3412  138.5315  161.8136 C.3     1  UNL1        0.0439
      8 C         139.6768  139.9542  161.4768 C.3     1  UNL1        0.0731
      9 C         140.7983  140.9451  161.3753 C.3     1  UNL1        0.0244
     10 C         140.9484  139.2556  161.8576 C.2     1  UNL1        0.2251
     11 O         141.7771  138.5802  160.8055 O.2     1  UNL1       -0.2749
     12 N         141.3914  139.2326  163.2906 N.am    1  UNL1       -0.2750
     13 C         142.6630  138.5340  163.6713 C.3     1  UNL1        0.1000
     14 C         143.1058  138.5110  165.1042 C.3     1  UNL1        0.0670
     15 C         142.2771  139.1864  166.1564 C.ar    1  UNL1        0.0583
     16 N         142.7200  139.1633  167.5894 N.ar    1  UNL1       -0.2484
     17 C         141.8913  139.8388  168.6415 C.ar    1  UNL1        0.1023
     18 C         140.6196  140.5373  168.2606 C.ar    1  UNL1        0.0902
     19 C         140.1768  140.5604  166.8277 C.ar    1  UNL1        0.0040
     20 C         141.0055  139.8849  165.7756 C.ar    1  UNL1        0.0113
     21 C         140.5626  139.9080  164.3427 C.3     1  UNL1        0.1213
     22 C         139.7909  141.2128  169.3128 C.3     1  UNL1        0.4200
     23 F         138.9622  141.8882  170.3649 F       1  UNL1       -0.1658
     24 F         138.8061  140.0824  169.2628 F       1  UNL1       -0.1658
     25 F         140.7757  142.3431  169.3628 F       1  UNL1       -0.1658
     26 N         140.9859  143.5250  160.7013 N.3     1  UNL1       -0.2975
     27 H         141.5179  143.3956  159.8407 H       1  UNL1        0.1232
     28 C         141.4843  144.9445  162.8194 C.3     1  UNL1        0.1591
     29 C         142.4507  145.4360  163.8561 C.3     1  UNL1        0.1729
     30 O         143.8849  144.9992  163.8113 O.3     1  UNL1       -0.3511
     31 C         144.3529  144.0711  162.7299 C.3     1  UNL1        0.1437
     32 C         143.3866  143.5796  161.6932 C.3     1  UNL1        0.0503
     33 C         141.9522  144.0164  161.7380 C.3     1  UNL1        0.0865
     34 C         139.0859  144.6963  163.7870 C.3     1  UNL1        0.1742
     35 O         140.0500  145.3813  162.8642 O.3     1  UNL1       -0.3496
@<TRIPOS>BOND
     1    34    35    1
     2    35    28    1
     3    28    29    1
     4    29    30    1
     5    30    31    1
     6    31    32    1
     7    32    33    1
     8    33    26    1
     9     1    26    1
    10     1     2    1
    11     3     2    1
    12     3     4    1
    13     4     5    1
    14     5     6    1
    15     5     7    1
    16     7     8    1
    17     8    10    1
    18    10    11    2
    19    10    12   am
    20    12    13    1
    21    13    14    1
    22    14    15    1
    23    15    16   ar
    24    16    17   ar
    25    17    18   ar
    26    18    22    1
    27    22    23    1
    28    22    24    1
    29    22    25    1
    30    18    19   ar
    31    19    20   ar
    32    20    21    1
    33     8     9    1
    34    33    28    1
    35     9     1    1
    36     8     3    1
    37    21    12    1
    38    20    15   ar
    39    26    27    1
@<TRIPOS>MOLECULE
*****
 35 39 0 0 0
SMALL
GASTEIGER

@<TRIPOS>ATOM
      1 C         141.8858  141.6569  161.9742 C.3     1  UNL1        0.0545
      2 C         141.6998  143.1037  161.6248 C.3     1  UNL1        0.0163
      3 C         140.3354  143.5207  162.0880 C.3     1  UNL1        0.0123
      4 C         139.3771  144.6725  162.1583 C.3     1  UNL1        0.0358
      5 C         138.1277  144.1953  162.8374 C.3     1  UNL1        0.1615
      6 F         136.9066  145.0202  163.1179 F       1  UNL1       -0.2373
      7 C         138.3137  142.7485  163.1868 C.3     1  UNL1        0.0439
      8 C         139.6781  142.3315  162.7236 C.3     1  UNL1        0.0731
      9 C         140.6363  141.1796  162.6533 C.3     1  UNL1        0.0244
     10 C         139.0209  141.1424  163.3593 C.2     1  UNL1        0.2251
     11 O         138.1203  140.2598  162.5469 O.2     1  UNL1       -0.2749
     12 N         139.2642  140.8358  164.8073 N.am    1  UNL1       -0.2750
     13 C         138.6070  139.6467  165.4430 C.3     1  UNL1        0.1000
     14 C         138.8504  139.3402  166.8910 C.3     1  UNL1        0.0670
     15 C         139.7510  140.2228  167.7034 C.ar    1  UNL1        0.0583
     16 N         139.9943  139.9163  169.1515 N.ar    1  UNL1       -0.2484
     17 C         140.8949  140.7989  169.9639 C.ar    1  UNL1        0.1023
     18 C         141.5521  141.9881  169.3282 C.ar    1  UNL1        0.0902
     19 C         141.3087  142.2946  167.8802 C.ar    1  UNL1        0.0040
     20 C         140.4082  141.4120  167.0678 C.ar    1  UNL1        0.0113
     21 C         140.1648  141.7185  165.6197 C.3     1  UNL1        0.1213
     22 C         142.4526  142.8707  170.1406 C.3     1  UNL1        0.4200
     23 F         143.3532  143.7533  170.9530 F       1  UNL1       -0.1658
     24 F         141.3981  143.9374  170.1506 F       1  UNL1       -0.1658
     25 F         143.5072  141.8040  170.1305 F       1  UNL1       -0.1658
     26 N         143.1069  140.8320  161.6938 N.3     1  UNL1       -0.2975
     27 H         143.8674  141.4857  161.5074 H       1  UNL1        0.1232
     28 C         142.9572  138.3773  160.8559 C.3     1  UNL1        0.1591
     29 C         142.9510  137.3875  159.7289 C.3     1  UNL1        0.1729
     30 O         143.0883  137.8625  158.3127 O.3     1  UNL1       -0.3511
     31 C         143.2318  139.3274  158.0235 C.3     1  UNL1        0.1437
     32 C         143.2380  140.3172  159.1506 C.3     1  UNL1        0.0503
     33 C         143.1007  139.8422  160.5668 C.3     1  UNL1        0.0865
     34 C         141.4695  137.5361  162.8127 C.3     1  UNL1        0.1742
     35 O         142.8199  137.9023  162.2720 O.3     1  UNL1       -0.3496
@<TRIPOS>BOND
     1    34    35    1
     2    35    28    1
     3    28    29    1
     4    29    30    1
     5    30    31    1
     6    31    32    1
     7    32    33    1
     8    33    26    1
     9     1    26    1
    10     1     2    1
    11     3     2    1
    12     3     4    1
    13     4     5    1
    14     5     6    1
    15     5     7    1
    16     7     8    1
    17     8    10    1
    18    10    11    2
    19    10    12   am
    20    12    13    1
    21    13    14    1
    22    14    15    1
    23    15    16   ar
    24    16    17   ar
    25    17    18   ar
    26    18    22    1
    27    22    23    1
    28    22    24    1
    29    22    25    1
    30    18    19   ar
    31    19    20   ar
    32    20    21    1
    33     8     9    1
    34    33    28    1
    35     9     1    1
    36     8     3    1
    37    21    12    1
    38    20    15   ar
    39    26    27    1
