@<TRIPOS>MOLECULE
*****
 39 42 0 0 0
SMALL
GASTEIGER

@<TRIPOS>ATOM
      1 C         139.3915  138.2174  162.8826 C.ar    1  UNL1        0.1534
      2 C         139.3081  137.9719  161.4052 C.ar    1  UNL1        0.0591
      3 C         138.9994  139.1057  160.4728 C.ar    1  UNL1        0.1072
      4 N         138.9160  138.8602  158.9953 N.ar    1  UNL1       -0.1477
      5 N         138.6074  139.9939  158.0629 N.ar    1  UNL1       -0.1421
      6 C         138.3822  141.3732  158.6080 C.ar    1  UNL1        0.1690
      7 C         138.4656  141.6186  160.0854 C.ar    1  UNL1        0.0740
      8 C         138.7743  140.4849  161.0178 C.ar    1  UNL1        0.0359
      9 C         138.8577  140.7303  162.4952 C.ar    1  UNL1        0.0204
     10 C         139.1663  139.5966  163.4276 C.ar    1  UNL1        0.0825
     11 N         139.2497  139.8421  164.9050 N.pl3   1  UNL1       -0.3017
     12 C         140.2665  140.8009  165.4497 C.3     1  UNL1        0.1124
     13 C         140.3500  141.0464  166.9271 C.3     1  UNL1        0.1149
     14 N         139.4166  140.3331  167.8599 N.am    1  UNL1       -0.2741
     15 C         139.5001  140.5786  169.3373 C.2     1  UNL1        0.2526
     16 O         138.5667  139.8652  170.2700 O.2     1  UNL1       -0.2723
     17 C         138.3998  139.3742  167.3152 C.3     1  UNL1        0.1149
     18 C         138.3164  139.1287  165.8377 C.3     1  UNL1        0.1124
     19 C         140.5169  141.5375  169.8820 C.3     1  UNL1        0.1869
     20 C         140.1689  142.9874  170.0445 C.3     1  UNL1        0.0417
     21 O         141.8817  141.0464  170.2641 O.3     1  UNL1       -0.3758
     22 H         142.4113  141.7884  170.5955 H       1  UNL1        0.2110
     23 C         138.0736  142.5069  157.6756 C.2     1  UNL1        0.2635
     24 N         136.8384  142.4639  156.8255 N.am    1  UNL1       -0.3240
     25 O         139.0000  143.6837  157.5933 O.2     1  UNL1       -0.2686
     26 H         136.2304  141.6915  156.8795 H       1  UNL1        0.1453
     27 H         136.6359  143.2080  156.2135 H       1  UNL1        0.1453
     28 C         141.0933  136.9029  164.3407 C.3     1  UNL1        0.2525
     29 O         139.7001  137.0836  163.8150 O.3     1  UNL1       -0.4701
     30 N         138.2404  142.9978  160.6304 N.pl3   1  UNL1       -0.3094
     31 H         137.3938  143.4665  160.4493 H       1  UNL1        0.1523
     32 C         139.3053  143.6630  161.4513 C.ar    1  UNL1        0.0761
     33 C         140.7315  143.6439  160.9872 C.ar    1  UNL1        0.0166
     34 C         141.7963  144.3090  161.8080 C.ar    1  UNL1       -0.0028
     35 C         141.4348  144.9933  163.0930 C.ar    1  UNL1       -0.0195
     36 C         142.4996  145.6585  163.9138 C.3     1  UNL1        0.0311
     37 C         140.0086  145.0124  163.5571 C.ar    1  UNL1        0.0267
     38 C         138.9438  144.3473  162.7362 C.ar    1  UNL1        0.1531
     39 F         137.5175  144.3664  163.2003 F       1  UNL1       -0.2029
@<TRIPOS>BOND
     1    28    29    1
     2    29     1    1
     3     1     2   ar
     4     2     3   ar
     5     3     4   ar
     6     4     5   ar
     7     5     6   ar
     8     6    23    1
     9    23    24   am
    10    23    25    2
    11     6     7   ar
    12     7    30    1
    13    30    32    1
    14    32    33   ar
    15    33    34   ar
    16    34    35   ar
    17    35    36    1
    18    35    37   ar
    19    37    38   ar
    20    38    39    1
    21     7     8   ar
    22     8     9   ar
    23     9    10   ar
    24    10    11    1
    25    11    12    1
    26    12    13    1
    27    13    14    1
    28    14    15   am
    29    15    16    2
    30    15    19    1
    31    19    20    1
    32    19    21    1
    33    14    17    1
    34    17    18    1
    35    10     1   ar
    36    18    11    1
    37     8     3   ar
    38    38    32   ar
    39    24    26    1
    40    24    27    1
    41    30    31    1
    42    21    22    1
@<TRIPOS>MOLECULE
*****
 39 42 0 0 0
SMALL
GASTEIGER

@<TRIPOS>ATOM
      1 C         138.6354  140.8258  162.5076 C.ar    1  UNL1        0.1534
      2 C         138.1523  141.2355  161.1479 C.ar    1  UNL1        0.0591
      3 C         138.8409  142.3453  160.4103 C.ar    1  UNL1        0.1072
      4 N         138.3578  142.7549  159.0505 N.ar    1  UNL1       -0.1477
      5 N         139.0464  143.8647  158.3128 N.ar    1  UNL1       -0.1421
      6 C         140.2182  144.5648  158.9349 C.ar    1  UNL1        0.1690
      7 C         140.7012  144.1552  160.2946 C.ar    1  UNL1        0.0740
      8 C         140.0126  143.0454  161.0323 C.ar    1  UNL1        0.0359
      9 C         140.4957  142.6357  162.3919 C.ar    1  UNL1        0.0204
     10 C         139.8070  141.5260  163.1296 C.ar    1  UNL1        0.0825
     11 N         140.2902  141.1163  164.4894 N.pl3   1  UNL1       -0.3017
     12 C         139.5956  141.6263  165.7172 C.3     1  UNL1        0.1124
     13 C         140.0786  141.2167  167.0769 C.3     1  UNL1        0.1149
     14 N         141.2563  140.2971  167.2089 N.am    1  UNL1       -0.2741
     15 C         141.7394  139.8875  168.5686 C.2     1  UNL1        0.2526
     16 O         142.9170  138.9679  168.7005 O.2     1  UNL1       -0.2723
     17 C         141.9509  139.7871  165.9811 C.3     1  UNL1        0.1149
     18 C         141.4678  140.1967  164.6213 C.3     1  UNL1        0.1124
     19 C         141.0448  140.3975  169.7963 C.3     1  UNL1        0.1869
     20 C         141.5119  141.6636  170.4509 C.3     1  UNL1        0.0417
     21 O         139.8831  139.6413  170.3695 O.3     1  UNL1       -0.3758
     22 H         139.5526  140.1035  171.1557 H       1  UNL1        0.2110
     23 C         140.9068  145.6746  158.1972 C.2     1  UNL1        0.2635
     24 N         140.1074  146.6254  157.3564 N.am    1  UNL1       -0.3240
     25 O         142.3948  145.8336  158.3004 O.2     1  UNL1       -0.2686
     26 H         139.1308  146.5211  157.2887 H       1  UNL1        0.1453
     27 H         140.5594  147.3538  156.8722 H       1  UNL1        0.1453
     28 C         138.4770  138.3156  163.1586 C.3     1  UNL1        0.2525
     29 O         137.9467  139.7160  163.2453 O.3     1  UNL1       -0.4701
     30 N         141.8729  144.8553  160.9166 N.pl3   1  UNL1       -0.3094
     31 H         141.9532  145.8343  160.8505 H       1  UNL1        0.1523
     32 C         142.9224  144.0638  161.6393 C.ar    1  UNL1        0.0761
     33 C         143.6669  142.9760  160.9235 C.ar    1  UNL1        0.0166
     34 C         144.7163  142.1845  161.6461 C.ar    1  UNL1       -0.0028
     35 C         145.0213  142.4809  163.0846 C.ar    1  UNL1       -0.0195
     36 C         146.0707  141.6894  163.8072 C.3     1  UNL1        0.0311
     37 C         144.2768  143.5687  163.8004 C.ar    1  UNL1        0.0267
     38 C         143.2274  144.3602  163.0777 C.ar    1  UNL1        0.1531
     39 F         142.4829  145.4480  163.7935 F       1  UNL1       -0.2029
@<TRIPOS>BOND
     1    28    29    1
     2    29     1    1
     3     1     2   ar
     4     2     3   ar
     5     3     4   ar
     6     4     5   ar
     7     5     6   ar
     8     6    23    1
     9    23    24   am
    10    23    25    2
    11     6     7   ar
    12     7    30    1
    13    30    32    1
    14    32    33   ar
    15    33    34   ar
    16    34    35   ar
    17    35    36    1
    18    35    37   ar
    19    37    38   ar
    20    38    39    1
    21     7     8   ar
    22     8     9   ar
    23     9    10   ar
    24    10    11    1
    25    11    12    1
    26    12    13    1
    27    13    14    1
    28    14    15   am
    29    15    16    2
    30    15    19    1
    31    19    20    1
    32    19    21    1
    33    14    17    1
    34    17    18    1
    35    10     1   ar
    36    18    11    1
    37     8     3   ar
    38    38    32   ar
    39    24    26    1
    40    24    27    1
    41    30    31    1
    42    21    22    1
@<TRIPOS>MOLECULE
*****
 39 42 0 0 0
SMALL
GASTEIGER

@<TRIPOS>ATOM
      1 C         144.1120  139.8765  162.9572 C.ar    1  UNL1        0.1534
      2 C         144.3341  139.5337  161.5139 C.ar    1  UNL1        0.0591
      3 C         143.1609  139.2810  160.6140 C.ar    1  UNL1        0.1072
      4 N         143.3830  138.9381  159.1706 N.ar    1  UNL1       -0.1477
      5 N         142.2099  138.6855  158.2707 N.ar    1  UNL1       -0.1421
      6 C         140.8146  138.7758  158.8141 C.ar    1  UNL1        0.1690
      7 C         140.5926  139.1186  160.2573 C.ar    1  UNL1        0.0740
      8 C         141.7657  139.3713  161.1573 C.ar    1  UNL1        0.0359
      9 C         141.5437  139.7141  162.6006 C.ar    1  UNL1        0.0204
     10 C         142.7168  139.9668  163.5005 C.ar    1  UNL1        0.0825
     11 N         142.4947  140.3097  164.9439 N.pl3   1  UNL1       -0.3017
     12 C         142.5109  141.7432  165.3852 C.3     1  UNL1        0.1124
     13 C         142.2888  142.0861  166.8285 C.3     1  UNL1        0.1149
     14 N         142.0505  140.9955  167.8305 N.am    1  UNL1       -0.2741
     15 C         141.8284  141.3384  169.2737 C.2     1  UNL1        0.2526
     16 O         141.5902  140.2478  170.2756 O.2     1  UNL1       -0.2723
     17 C         142.0343  139.5620  167.3891 C.3     1  UNL1        0.1149
     18 C         142.2565  139.2191  165.9457 C.3     1  UNL1        0.1124
     19 C         141.8446  142.7719  169.7151 C.3     1  UNL1        0.1869
     20 C         140.5970  143.5994  169.6222 C.3     1  UNL1        0.0417
     21 O         143.1084  143.3779  170.2494 O.3     1  UNL1       -0.3758
     22 H         142.9473  144.3044  170.4872 H       1  UNL1        0.2110
     23 C         139.6415  138.5231  157.9141 C.2     1  UNL1        0.2635
     24 N         139.6112  137.2994  157.0470 N.am    1  UNL1       -0.3240
     25 O         138.4987  139.4941  157.8812 O.2     1  UNL1       -0.2686
     26 H         140.3613  136.6622  157.0686 H       1  UNL1        0.1453
     27 H         138.8413  137.1336  156.4564 H       1  UNL1        0.1453
     28 C         145.9077  141.4927  163.9129 C.3     1  UNL1        0.2525
     29 O         145.2852  140.1292  163.8571 O.3     1  UNL1       -0.4701
     30 N         139.1974  139.2089  160.8007 N.pl3   1  UNL1       -0.3094
     31 H         138.5791  138.4497  160.6980 H       1  UNL1        0.1523
     32 C         138.7442  140.4558  161.5005 C.ar    1  UNL1        0.0761
     33 C         138.8816  141.7876  160.8241 C.ar    1  UNL1        0.0166
     34 C         138.4285  143.0345  161.5239 C.ar    1  UNL1       -0.0028
     35 C         137.8379  142.9498  162.9002 C.ar    1  UNL1       -0.0195
     36 C         137.3848  144.1967  163.5999 C.3     1  UNL1        0.0311
     37 C         137.7005  141.6180  163.5766 C.ar    1  UNL1        0.0267
     38 C         138.1537  140.3710  162.8767 C.ar    1  UNL1        0.1531
     39 F         138.0163  139.0393  163.5532 F       1  UNL1       -0.2029
@<TRIPOS>BOND
     1    28    29    1
     2    29     1    1
     3     1     2   ar
     4     2     3   ar
     5     3     4   ar
     6     4     5   ar
     7     5     6   ar
     8     6    23    1
     9    23    24   am
    10    23    25    2
    11     6     7   ar
    12     7    30    1
    13    30    32    1
    14    32    33   ar
    15    33    34   ar
    16    34    35   ar
    17    35    36    1
    18    35    37   ar
    19    37    38   ar
    20    38    39    1
    21     7     8   ar
    22     8     9   ar
    23     9    10   ar
    24    10    11    1
    25    11    12    1
    26    12    13    1
    27    13    14    1
    28    14    15   am
    29    15    16    2
    30    15    19    1
    31    19    20    1
    32    19    21    1
    33    14    17    1
    34    17    18    1
    35    10     1   ar
    36    18    11    1
    37     8     3   ar
    38    38    32   ar
    39    24    26    1
    40    24    27    1
    41    30    31    1
    42    21    22    1
@<TRIPOS>MOLECULE
*****
 39 42 0 0 0
SMALL
GASTEIGER

@<TRIPOS>ATOM
      1 C         137.9956  140.7122  162.1708 C.ar    1  UNL1        0.1534
      2 C         137.8036  140.5495  160.6921 C.ar    1  UNL1        0.0591
      3 C         138.8356  139.8285  159.8766 C.ar    1  UNL1        0.1072
      4 N         138.6435  139.6659  158.3978 N.ar    1  UNL1       -0.1477
      5 N         139.6756  138.9449  157.5823 N.ar    1  UNL1       -0.1421
      6 C         140.8997  138.3865  158.2456 C.ar    1  UNL1        0.1690
      7 C         141.0917  138.5492  159.7243 C.ar    1  UNL1        0.0740
      8 C         140.0597  139.2702  160.5398 C.ar    1  UNL1        0.0359
      9 C         140.2517  139.4329  162.0185 C.ar    1  UNL1        0.0204
     10 C         139.2197  140.1539  162.8340 C.ar    1  UNL1        0.0825
     11 N         139.4118  140.3165  164.3128 N.pl3   1  UNL1       -0.3017
     12 C         140.3202  141.3886  164.8377 C.3     1  UNL1        0.1124
     13 C         140.5123  141.5513  166.3163 C.3     1  UNL1        0.1149
     14 N         139.7960  140.6419  167.2703 N.am    1  UNL1       -0.2741
     15 C         139.9881  140.8045  168.7490 C.2     1  UNL1        0.2526
     16 O         139.2718  139.8952  169.7028 O.2     1  UNL1       -0.2723
     17 C         138.8876  139.5698  166.7455 C.3     1  UNL1        0.1149
     18 C         138.6955  139.4071  165.2667 C.3     1  UNL1        0.1124
     19 C         140.8965  141.8766  169.2738 C.3     1  UNL1        0.1869
     20 C         140.3346  143.2121  169.6620 C.3     1  UNL1        0.0417
     21 O         142.3668  141.6132  169.4105 O.3     1  UNL1       -0.3758
     22 H         142.8057  142.4039  169.7613 H       1  UNL1        0.2110
     23 C         141.9318  137.6656  157.4301 C.2     1  UNL1        0.2635
     24 N         141.5182  136.5591  156.5055 N.am    1  UNL1       -0.3240
     25 O         143.3772  138.0510  157.5391 O.2     1  UNL1       -0.2686
     26 H         140.5695  136.3061  156.4339 H       1  UNL1        0.1453
     27 H         142.1956  136.0859  155.9702 H       1  UNL1        0.1453
     28 C         137.2472  142.8111  163.5066 C.3     1  UNL1        0.2525
     29 O         136.9636  141.4332  162.9864 O.3     1  UNL1       -0.4701
     30 N         142.3158  137.9909  160.3875 N.pl3   1  UNL1       -0.3094
     31 H         142.5531  137.0433  160.2652 H       1  UNL1        0.1523
     32 C         143.1785  138.8764  161.2371 C.ar    1  UNL1        0.0761
     33 C         143.5690  138.4411  162.6184 C.ar    1  UNL1        0.0166
     34 C         144.4316  139.3265  163.4680 C.ar    1  UNL1       -0.0028
     35 C         144.9038  140.6473  162.9363 C.ar    1  UNL1       -0.0195
     36 C         145.7664  141.5327  163.7860 C.3     1  UNL1        0.0311
     37 C         144.5132  141.0826  161.5550 C.ar    1  UNL1        0.0267
     38 C         143.6506  140.1971  160.7054 C.ar    1  UNL1        0.1531
     39 F         143.2601  140.6324  159.3241 F       1  UNL1       -0.2029
@<TRIPOS>BOND
     1    28    29    1
     2    29     1    1
     3     1     2   ar
     4     2     3   ar
     5     3     4   ar
     6     4     5   ar
     7     5     6   ar
     8     6    23    1
     9    23    24   am
    10    23    25    2
    11     6     7   ar
    12     7    30    1
    13    30    32    1
    14    32    33   ar
    15    33    34   ar
    16    34    35   ar
    17    35    36    1
    18    35    37   ar
    19    37    38   ar
    20    38    39    1
    21     7     8   ar
    22     8     9   ar
    23     9    10   ar
    24    10    11    1
    25    11    12    1
    26    12    13    1
    27    13    14    1
    28    14    15   am
    29    15    16    2
    30    15    19    1
    31    19    20    1
    32    19    21    1
    33    14    17    1
    34    17    18    1
    35    10     1   ar
    36    18    11    1
    37     8     3   ar
    38    38    32   ar
    39    24    26    1
    40    24    27    1
    41    30    31    1
    42    21    22    1
@<TRIPOS>MOLECULE
*****
 39 42 0 0 0
SMALL
GASTEIGER

@<TRIPOS>ATOM
      1 C         141.5956  137.9603  163.6051 C.ar    1  UNL1        0.1534
      2 C         141.7677  137.4511  162.2047 C.ar    1  UNL1        0.0591
      3 C         142.4136  138.3185  161.1652 C.ar    1  UNL1        0.1072
      4 N         142.5856  137.8091  159.7648 N.ar    1  UNL1       -0.1477
      5 N         143.2315  138.6765  158.7254 N.ar    1  UNL1       -0.1421
      6 C         143.7053  140.0532  159.0863 C.ar    1  UNL1        0.1690
      7 C         143.5333  140.5625  160.4867 C.ar    1  UNL1        0.0740
      8 C         142.8874  139.6951  161.5261 C.ar    1  UNL1        0.0359
      9 C         142.7154  140.2044  162.9265 C.ar    1  UNL1        0.0204
     10 C         142.0695  139.3370  163.9659 C.ar    1  UNL1        0.0825
     11 N         141.8975  139.8463  165.3663 N.pl3   1  UNL1       -0.3017
     12 C         140.7512  140.7550  165.6984 C.3     1  UNL1        0.1124
     13 C         140.5791  141.2643  167.0987 C.3     1  UNL1        0.1149
     14 N         141.5534  140.8650  168.1671 N.am    1  UNL1       -0.2741
     15 C         141.3813  141.3743  169.5674 C.2     1  UNL1        0.2526
     16 O         142.3555  140.9749  170.6357 O.2     1  UNL1       -0.2723
     17 C         142.6997  139.9562  167.8350 C.3     1  UNL1        0.1149
     18 C         142.8717  139.4469  166.4346 C.3     1  UNL1        0.1124
     19 C         140.2350  142.2830  169.8994 C.3     1  UNL1        0.1869
     20 C         140.3800  143.7662  169.7290 C.3     1  UNL1        0.0417
     21 O         138.9437  141.7085  170.4018 O.3     1  UNL1       -0.3758
     22 H         138.3129  142.4267  170.5670 H       1  UNL1        0.2110
     23 C         144.3512  140.9206  158.0469 C.2     1  UNL1        0.2635
     24 N         145.3072  140.3212  157.0584 N.am    1  UNL1       -0.3240
     25 O         144.0412  142.3873  157.9958 O.2     1  UNL1       -0.2686
     26 H         145.5106  139.3585  157.0919 H       1  UNL1        0.1453
     27 H         145.7311  140.8905  156.3762 H       1  UNL1        0.1453
     28 C         139.5024  137.2854  164.9880 C.3     1  UNL1        0.2525
     29 O         140.9498  137.0929  164.6445 O.3     1  UNL1       -0.4701
     30 N         144.0071  141.9391  160.8475 N.pl3   1  UNL1       -0.3094
     31 H         144.9709  142.1391  160.8652 H       1  UNL1        0.1523
     32 C         143.0125  143.0111  161.1816 C.ar    1  UNL1        0.0761
     33 C         141.7636  143.1568  160.3636 C.ar    1  UNL1        0.0166
     34 C         140.7690  144.2287  160.6976 C.ar    1  UNL1       -0.0028
     35 C         141.0232  145.1551  161.8497 C.ar    1  UNL1       -0.0195
     36 C         140.0286  146.2270  162.1837 C.3     1  UNL1        0.0311
     37 C         142.2720  145.0095  162.6677 C.ar    1  UNL1        0.0267
     38 C         143.2667  143.9375  162.3337 C.ar    1  UNL1        0.1531
     39 F         144.5155  143.7918  163.1517 F       1  UNL1       -0.2029
@<TRIPOS>BOND
     1    28    29    1
     2    29     1    1
     3     1     2   ar
     4     2     3   ar
     5     3     4   ar
     6     4     5   ar
     7     5     6   ar
     8     6    23    1
     9    23    24   am
    10    23    25    2
    11     6     7   ar
    12     7    30    1
    13    30    32    1
    14    32    33   ar
    15    33    34   ar
    16    34    35   ar
    17    35    36    1
    18    35    37   ar
    19    37    38   ar
    20    38    39    1
    21     7     8   ar
    22     8     9   ar
    23     9    10   ar
    24    10    11    1
    25    11    12    1
    26    12    13    1
    27    13    14    1
    28    14    15   am
    29    15    16    2
    30    15    19    1
    31    19    20    1
    32    19    21    1
    33    14    17    1
    34    17    18    1
    35    10     1   ar
    36    18    11    1
    37     8     3   ar
    38    38    32   ar
    39    24    26    1
    40    24    27    1
    41    30    31    1
    42    21    22    1
@<TRIPOS>MOLECULE
*****
 39 42 0 0 0
SMALL
GASTEIGER

@<TRIPOS>ATOM
      1 C         143.6234  139.2803  162.8743 C.ar    1  UNL1        0.1534
      2 C         143.9533  138.8236  161.4841 C.ar    1  UNL1        0.0591
      3 C         142.8634  138.6791  160.4637 C.ar    1  UNL1        0.1072
      4 N         143.1933  138.2224  159.0735 N.ar    1  UNL1       -0.1477
      5 N         142.1034  138.0778  158.0531 N.ar    1  UNL1       -0.1421
      6 C         140.6836  138.3900  158.4229 C.ar    1  UNL1        0.1690
      7 C         140.3537  138.8467  159.8131 C.ar    1  UNL1        0.0740
      8 C         141.4436  138.9913  160.8335 C.ar    1  UNL1        0.0359
      9 C         141.1138  139.4479  162.2236 C.ar    1  UNL1        0.0204
     10 C         142.2037  139.5925  163.2440 C.ar    1  UNL1        0.0825
     11 N         141.8738  140.0492  164.6342 N.pl3   1  UNL1       -0.3017
     12 C         141.3178  139.0761  165.6312 C.3     1  UNL1        0.1124
     13 C         140.9879  139.5327  167.0214 C.3     1  UNL1        0.1149
     14 N         141.2139  140.9626  167.4146 N.am    1  UNL1       -0.2741
     15 C         140.8840  141.4192  168.8048 C.2     1  UNL1        0.2526
     16 O         141.1101  142.8490  169.1980 O.2     1  UNL1       -0.2723
     17 C         141.7699  141.9357  166.4177 C.3     1  UNL1        0.1149
     18 C         142.0998  141.4790  165.0274 C.3     1  UNL1        0.1124
     19 C         140.3280  140.4461  169.8018 C.3     1  UNL1        0.1869
     20 C         138.8463  140.3572  170.0171 C.3     1  UNL1        0.0417
     21 O         141.2538  139.5619  170.5834 O.3     1  UNL1       -0.3758
     22 H         140.7361  138.9975  171.1786 H       1  UNL1        0.2110
     23 C         139.5937  138.2455  157.4025 C.2     1  UNL1        0.2635
     24 N         139.4364  136.9572  156.6505 N.am    1  UNL1       -0.3240
     25 O         138.6610  139.3892  157.1342 O.2     1  UNL1       -0.2686
     26 H         140.0485  136.2065  156.8266 H       1  UNL1        0.1453
     27 H         138.7211  136.8623  155.9808 H       1  UNL1        0.1453
     28 C         145.4685  140.7159  164.0077 C.3     1  UNL1        0.2525
     29 O         144.7134  139.4249  163.8947 O.3     1  UNL1       -0.4701
     30 N         138.9339  139.1589  160.1828 N.pl3   1  UNL1       -0.3094
     31 H         138.2137  138.5320  159.9432 H       1  UNL1        0.1523
     32 C         138.6116  140.4262  160.9177 C.ar    1  UNL1        0.0761
     33 C         137.8404  140.3724  162.2032 C.ar    1  UNL1        0.0166
     34 C         137.5180  141.6396  162.9380 C.ar    1  UNL1       -0.0028
     35 C         137.9668  142.9609  162.3875 C.ar    1  UNL1       -0.0195
     36 C         137.6445  144.2281  163.1223 C.3     1  UNL1        0.0311
     37 C         138.7380  143.0147  161.1020 C.ar    1  UNL1        0.0267
     38 C         139.0604  141.7473  160.3671 C.ar    1  UNL1        0.1531
     39 F         139.8316  141.8012  159.0817 F       1  UNL1       -0.2029
@<TRIPOS>BOND
     1    28    29    1
     2    29     1    1
     3     1     2   ar
     4     2     3   ar
     5     3     4   ar
     6     4     5   ar
     7     5     6   ar
     8     6    23    1
     9    23    24   am
    10    23    25    2
    11     6     7   ar
    12     7    30    1
    13    30    32    1
    14    32    33   ar
    15    33    34   ar
    16    34    35   ar
    17    35    36    1
    18    35    37   ar
    19    37    38   ar
    20    38    39    1
    21     7     8   ar
    22     8     9   ar
    23     9    10   ar
    24    10    11    1
    25    11    12    1
    26    12    13    1
    27    13    14    1
    28    14    15   am
    29    15    16    2
    30    15    19    1
    31    19    20    1
    32    19    21    1
    33    14    17    1
    34    17    18    1
    35    10     1   ar
    36    18    11    1
    37     8     3   ar
    38    38    32   ar
    39    24    26    1
    40    24    27    1
    41    30    31    1
    42    21    22    1
@<TRIPOS>MOLECULE
*****
 39 42 0 0 0
SMALL
GASTEIGER

@<TRIPOS>ATOM
      1 C         144.1100  139.9587  162.9033 C.ar    1  UNL1        0.1534
      2 C         144.3204  139.5603  161.4726 C.ar    1  UNL1        0.0591
      3 C         143.1394  139.3065  160.5833 C.ar    1  UNL1        0.1072
      4 N         143.3498  138.9080  159.1525 N.ar    1  UNL1       -0.1477
      5 N         142.1688  138.6542  158.2632 N.ar    1  UNL1       -0.1421
      6 C         140.7774  138.7988  158.8047 C.ar    1  UNL1        0.1690
      7 C         140.5671  139.1972  160.2354 C.ar    1  UNL1        0.0740
      8 C         141.7481  139.4510  161.1247 C.ar    1  UNL1        0.0359
      9 C         141.5377  139.8495  162.5554 C.ar    1  UNL1        0.0204
     10 C         142.7187  140.1033  163.4447 C.ar    1  UNL1        0.0825
     11 N         142.5083  140.5017  164.8755 N.pl3   1  UNL1       -0.3017
     12 C         142.4622  139.4531  165.9470 C.3     1  UNL1        0.1124
     13 C         142.2518  139.8514  167.3777 C.3     1  UNL1        0.1149
     14 N         142.0874  141.2985  167.7370 N.am    1  UNL1       -0.2741
     15 C         141.8770  141.6969  169.1677 C.2     1  UNL1        0.2526
     16 O         141.7126  143.1439  169.5269 O.2     1  UNL1       -0.2723
     17 C         142.1335  142.3472  166.6654 C.3     1  UNL1        0.1149
     18 C         142.3439  141.9487  165.2347 C.3     1  UNL1        0.1124
     19 C         141.8310  140.6482  170.2392 C.3     1  UNL1        0.1869
     20 C         140.5235  140.0162  170.6144 C.3     1  UNL1        0.0417
     21 O         143.0925  140.2316  170.9355 O.3     1  UNL1       -0.3758
     22 H         142.8880  139.5501  171.5949 H       1  UNL1        0.2110
     23 C         139.5964  138.5450  157.9154 C.2     1  UNL1        0.2635
     24 N         139.5389  137.2988  157.0824 N.am    1  UNL1       -0.3240
     25 O         138.4730  139.5372  157.8591 O.2     1  UNL1       -0.2686
     26 H         140.2763  136.6475  157.1194 H       1  UNL1        0.1453
     27 H         138.7638  137.1322  156.4988 H       1  UNL1        0.1453
     28 C         145.8944  141.5839  163.8649 C.3     1  UNL1        0.2525
     29 O         145.2910  140.2126  163.7926 O.3     1  UNL1       -0.4701
     30 N         139.1757  139.3418  160.7768 N.pl3   1  UNL1       -0.3094
     31 H         138.4293  139.5454  160.1680 H       1  UNL1        0.1523
     32 C         138.9216  139.1761  162.2459 C.ar    1  UNL1        0.0761
     33 C         139.1210  137.8388  162.8954 C.ar    1  UNL1        0.0166
     34 C         138.8669  137.6731  164.3644 C.ar    1  UNL1       -0.0028
     35 C         138.4133  138.8448  165.1839 C.ar    1  UNL1       -0.0195
     36 C         138.1592  138.6791  166.6529 C.3     1  UNL1        0.0311
     37 C         138.2139  140.1821  164.5344 C.ar    1  UNL1        0.0267
     38 C         138.4681  140.3478  163.0654 C.ar    1  UNL1        0.1531
     39 F         138.2686  141.6851  162.4159 F       1  UNL1       -0.2029
@<TRIPOS>BOND
     1    28    29    1
     2    29     1    1
     3     1     2   ar
     4     2     3   ar
     5     3     4   ar
     6     4     5   ar
     7     5     6   ar
     8     6    23    1
     9    23    24   am
    10    23    25    2
    11     6     7   ar
    12     7    30    1
    13    30    32    1
    14    32    33   ar
    15    33    34   ar
    16    34    35   ar
    17    35    36    1
    18    35    37   ar
    19    37    38   ar
    20    38    39    1
    21     7     8   ar
    22     8     9   ar
    23     9    10   ar
    24    10    11    1
    25    11    12    1
    26    12    13    1
    27    13    14    1
    28    14    15   am
    29    15    16    2
    30    15    19    1
    31    19    20    1
    32    19    21    1
    33    14    17    1
    34    17    18    1
    35    10     1   ar
    36    18    11    1
    37     8     3   ar
    38    38    32   ar
    39    24    26    1
    40    24    27    1
    41    30    31    1
    42    21    22    1
@<TRIPOS>MOLECULE
*****
 39 42 0 0 0
SMALL
GASTEIGER

@<TRIPOS>ATOM
      1 C         141.8039  138.7379  163.7599 C.ar    1  UNL1        0.1534
      2 C         142.1229  138.4851  162.3162 C.ar    1  UNL1        0.0591
      3 C         141.2699  139.0924  161.2421 C.ar    1  UNL1        0.1072
      4 N         141.5889  138.8396  159.7984 N.ar    1  UNL1       -0.1477
      5 N         140.7359  139.4469  158.7243 N.ar    1  UNL1       -0.1421
      6 C         139.5639  140.3070  159.0940 C.ar    1  UNL1        0.1690
      7 C         139.2449  140.5598  160.5377 C.ar    1  UNL1        0.0740
      8 C         140.0979  139.9525  161.6118 C.ar    1  UNL1        0.0359
      9 C         139.7789  140.2053  163.0555 C.ar    1  UNL1        0.0204
     10 C         140.6319  139.5980  164.1295 C.ar    1  UNL1        0.0825
     11 N         140.3128  139.8508  165.5733 N.pl3   1  UNL1       -0.3017
     12 C         141.1673  140.7851  166.3777 C.3     1  UNL1        0.1124
     13 C         140.8483  141.0379  167.8214 C.3     1  UNL1        0.1149
     14 N         139.6748  140.3565  168.4607 N.am    1  UNL1       -0.2741
     15 C         139.3558  140.6094  169.9044 C.2     1  UNL1        0.2526
     16 O         138.1823  139.9280  170.5436 O.2     1  UNL1       -0.2723
     17 C         138.8203  139.4223  167.6563 C.3     1  UNL1        0.1149
     18 C         139.1394  139.1695  166.2125 C.3     1  UNL1        0.1124
     19 C         140.2103  141.5436  170.7088 C.3     1  UNL1        0.1869
     20 C         141.5528  141.0936  171.2039 C.3     1  UNL1        0.0417
     21 O         139.7222  142.9278  171.0182 O.3     1  UNL1       -0.3758
     22 H         140.3904  143.3966  171.5423 H       1  UNL1        0.2110
     23 C         138.7109  140.9143  158.0200 C.2     1  UNL1        0.2635
     24 N         138.1311  140.0466  156.9424 N.am    1  UNL1       -0.3240
     25 O         138.4377  142.3892  158.0234 O.2     1  UNL1       -0.2686
     26 H         138.3104  139.0786  156.9402 H       1  UNL1        0.1453
     27 H         137.5712  140.4452  156.2375 H       1  UNL1        0.1453
     28 C         143.9364  138.7982  165.2426 C.3     1  UNL1        0.2525
     29 O         142.6569  138.1306  164.8339 O.3     1  UNL1       -0.4701
     30 N         138.0729  141.4199  160.9073 N.pl3   1  UNL1       -0.3094
     31 H         137.2455  141.3796  160.3753 H       1  UNL1        0.1523
     32 C         138.1615  142.3414  162.0876 C.ar    1  UNL1        0.0761
     33 C         137.3780  142.0442  163.3317 C.ar    1  UNL1        0.0166
     34 C         137.4665  142.9657  164.5119 C.ar    1  UNL1       -0.0028
     35 C         138.3387  144.1845  164.4481 C.ar    1  UNL1       -0.0195
     36 C         138.4273  145.1059  165.6283 C.3     1  UNL1        0.0311
     37 C         139.1222  144.4817  163.2040 C.ar    1  UNL1        0.0267
     38 C         139.0336  143.5601  162.0238 C.ar    1  UNL1        0.1531
     39 F         139.8172  143.8574  160.7797 F       1  UNL1       -0.2029
@<TRIPOS>BOND
     1    28    29    1
     2    29     1    1
     3     1     2   ar
     4     2     3   ar
     5     3     4   ar
     6     4     5   ar
     7     5     6   ar
     8     6    23    1
     9    23    24   am
    10    23    25    2
    11     6     7   ar
    12     7    30    1
    13    30    32    1
    14    32    33   ar
    15    33    34   ar
    16    34    35   ar
    17    35    36    1
    18    35    37   ar
    19    37    38   ar
    20    38    39    1
    21     7     8   ar
    22     8     9   ar
    23     9    10   ar
    24    10    11    1
    25    11    12    1
    26    12    13    1
    27    13    14    1
    28    14    15   am
    29    15    16    2
    30    15    19    1
    31    19    20    1
    32    19    21    1
    33    14    17    1
    34    17    18    1
    35    10     1   ar
    36    18    11    1
    37     8     3   ar
    38    38    32   ar
    39    24    26    1
    40    24    27    1
    41    30    31    1
    42    21    22    1
@<TRIPOS>MOLECULE
*****
 39 42 0 0 0
SMALL
GASTEIGER

@<TRIPOS>ATOM
      1 C         141.5195  144.5206  162.3333 C.ar    1  UNL1        0.1534
      2 C         141.3071  144.8714  160.8905 C.ar    1  UNL1        0.0591
      3 C         140.3694  144.0558  160.0506 C.ar    1  UNL1        0.1072
      4 N         140.1570  144.4067  158.6076 N.ar    1  UNL1       -0.1477
      5 N         139.2193  143.5911  157.7677 N.ar    1  UNL1       -0.1421
      6 C         138.4939  142.4248  158.3706 C.ar    1  UNL1        0.1690
      7 C         138.7062  142.0740  159.8135 C.ar    1  UNL1        0.0740
      8 C         139.6440  142.8895  160.6534 C.ar    1  UNL1        0.0359
      9 C         139.8563  142.5388  162.0963 C.ar    1  UNL1        0.0204
     10 C         140.7941  143.3543  162.9362 C.ar    1  UNL1        0.0825
     11 N         141.0064  143.0035  164.3791 N.pl3   1  UNL1       -0.3017
     12 C         140.0011  143.4254  165.4093 C.3     1  UNL1        0.1124
     13 C         140.2134  143.0746  166.8522 C.3     1  UNL1        0.1149
     14 N         141.4311  142.3018  167.2649 N.am    1  UNL1       -0.2741
     15 C         141.6434  141.9511  168.7077 C.2     1  UNL1        0.2526
     16 O         142.8609  141.1783  169.1203 O.2     1  UNL1       -0.2723
     17 C         142.4364  141.8799  166.2347 C.3     1  UNL1        0.1149
     18 C         142.2240  142.2307  164.7918 C.3     1  UNL1        0.1124
     19 C         140.6381  142.3730  169.7379 C.3     1  UNL1        0.1869
     20 C         139.5202  141.4479  170.1181 C.3     1  UNL1        0.0417
     21 O         140.7506  143.7201  170.3880 O.3     1  UNL1       -0.3758
     22 H         140.0275  143.8334  171.0246 H       1  UNL1        0.2110
     23 C         137.5561  141.6092  157.5307 C.2     1  UNL1        0.2635
     24 N         136.6103  142.2901  156.5862 N.am    1  UNL1       -0.3240
     25 O         137.5641  140.1129  157.6352 O.2     1  UNL1       -0.2686
     26 H         136.6051  143.2722  156.5176 H       1  UNL1        0.1453
     27 H         135.9948  141.7549  156.0349 H       1  UNL1        0.1453
     28 C         143.9245  145.0246  163.1770 C.3     1  UNL1        0.2525
     29 O         142.4572  145.3361  163.1733 O.3     1  UNL1       -0.4701
     30 N         137.9808  140.9077  160.4163 N.pl3   1  UNL1       -0.3094
     31 H         137.0135  140.7999  160.2686 H       1  UNL1        0.1523
     32 C         138.7293  139.9056  161.2444 C.ar    1  UNL1        0.0761
     33 C         139.8520  139.1187  160.6359 C.ar    1  UNL1        0.0166
     34 C         140.6005  138.1166  161.4639 C.ar    1  UNL1       -0.0028
     35 C         140.2263  137.9014  162.9005 C.ar    1  UNL1       -0.0195
     36 C         140.9748  136.8994  163.7285 C.3     1  UNL1        0.0311
     37 C         139.1036  138.6884  163.5090 C.ar    1  UNL1        0.0267
     38 C         138.3551  139.6905  162.6809 C.ar    1  UNL1        0.1531
     39 F         137.2324  140.4774  163.2895 F       1  UNL1       -0.2029
@<TRIPOS>BOND
     1    28    29    1
     2    29     1    1
     3     1     2   ar
     4     2     3   ar
     5     3     4   ar
     6     4     5   ar
     7     5     6   ar
     8     6    23    1
     9    23    24   am
    10    23    25    2
    11     6     7   ar
    12     7    30    1
    13    30    32    1
    14    32    33   ar
    15    33    34   ar
    16    34    35   ar
    17    35    36    1
    18    35    37   ar
    19    37    38   ar
    20    38    39    1
    21     7     8   ar
    22     8     9   ar
    23     9    10   ar
    24    10    11    1
    25    11    12    1
    26    12    13    1
    27    13    14    1
    28    14    15   am
    29    15    16    2
    30    15    19    1
    31    19    20    1
    32    19    21    1
    33    14    17    1
    34    17    18    1
    35    10     1   ar
    36    18    11    1
    37     8     3   ar
    38    38    32   ar
    39    24    26    1
    40    24    27    1
    41    30    31    1
    42    21    22    1
