@<TRIPOS>MOLECULE
*****
 32 35 0 0 0
SMALL
GASTEIGER

@<TRIPOS>ATOM
      1 N         138.4857  138.7604  163.6149 N.pl3   1  UNL1       -0.2978
      2 H         138.2333  137.8298  163.4164 H       1  UNL1        0.1536
      3 C         138.4187  139.8019  162.5373 C.ar    1  UNL1        0.1367
      4 C         138.0887  141.2226  162.8869 C.ar    1  UNL1        0.0685
      5 C         138.0217  142.2641  161.8093 C.ar    1  UNL1        0.1344
      6 N         138.2848  141.8845  160.3822 N.ar    1  UNL1       -0.1980
      7 N         138.2906  142.6870  159.1149 N.ar    1  UNL1       -0.1602
      8 C         138.6242  141.7621  157.9822 C.ar    1  UNL1        0.1339
      9 C         138.8247  140.3880  158.5493 C.ar    1  UNL1        0.1250
     10 C         138.6149  140.4636  160.0326 C.ar    1  UNL1        0.1776
     11 N         138.6819  139.4223  161.1102 N.ar    1  UNL1       -0.2109
     12 N         137.6916  143.6849  162.1590 N.pl3   1  UNL1       -0.3196
     13 H         137.2287  144.2578  161.5057 H       1  UNL1        0.1481
     14 C         138.0668  144.2328  163.5039 C.3     1  UNL1        0.0705
     15 C         137.7580  144.4301  164.9585 C.3     1  UNL1        0.0212
     16 C         139.0256  144.9846  164.3790 C.3     1  UNL1        0.0212
     17 C         139.1736  139.1547  157.7699 C.1     1  UNL1        0.1052
     18 N         139.5225  137.9215  156.9906 N.1     1  UNL1       -0.1907
     19 C         140.7521  140.1034  166.5831 C.ar    1  UNL1        0.0475
     20 C         140.3006  139.7267  165.2031 C.ar    1  UNL1        0.0290
     21 C         138.9372  139.1371  164.9948 C.ar    1  UNL1        0.0506
     22 C         138.0252  138.9242  166.1665 C.ar    1  UNL1        0.0144
     23 C         138.4767  139.3009  167.5466 C.ar    1  UNL1       -0.0018
     24 C         139.8401  139.8905  167.7548 C.ar    1  UNL1       -0.0089
     25 C         143.7178  142.7370  166.7211 C.3     1  UNL1        0.0949
     26 C         142.3543  142.1475  166.5129 C.2     1  UNL1        0.2266
     27 O         141.2295  143.0123  166.0263 O.2     1  UNL1       -0.2748
     28 N         142.1156  140.6930  166.7913 N.am    1  UNL1       -0.2841
     29 H         142.8539  140.1253  167.1106 H       1  UNL1        0.1548
     30 C         140.2916  140.2671  169.1347 C.3     1  UNL1        0.0236
     31 C         141.3720  139.4773  169.8120 C.3     1  UNL1        0.0047
     32 C         139.6626  141.4336  169.8374 C.3     1  UNL1        0.0047
@<TRIPOS>BOND
     1    25    26    1
     2    26    27    2
     3    26    28   am
     4    28    19    1
     5    19    20   ar
     6    20    21   ar
     7    21     1    1
     8     1     3    1
     9     3     4   ar
    10     4     5   ar
    11     5    12    1
    12    12    14    1
    13    14    15    1
    14    15    16    1
    15     5     6   ar
    16     6     7   ar
    17     7     8   ar
    18     8     9   ar
    19     9    17    1
    20    17    18    3
    21     9    10   ar
    22    10    11   ar
    23    21    22   ar
    24    22    23   ar
    25    23    24   ar
    26    24    30    1
    27    30    31    1
    28    30    32    1
    29    24    19   ar
    30    11     3   ar
    31    16    14    1
    32    10     6   ar
    33    28    29    1
    34     1     2    1
    35    12    13    1
@<TRIPOS>MOLECULE
*****
 32 35 0 0 0
SMALL
GASTEIGER

@<TRIPOS>ATOM
      1 N         144.3692  142.2657  164.2589 N.pl3   1  UNL1       -0.2978
      2 H         145.3483  142.2340  164.1611 H       1  UNL1        0.1536
      3 C         143.5341  142.9600  163.2241 C.ar    1  UNL1        0.1367
      4 C         142.4262  143.8783  163.6471 C.ar    1  UNL1        0.0685
      5 C         141.5911  144.5726  162.6123 C.ar    1  UNL1        0.1344
      6 N         141.8642  144.3486  161.1545 N.ar    1  UNL1       -0.1980
      7 N         141.2133  144.8906  159.9166 N.ar    1  UNL1       -0.1602
      8 C         141.9190  144.3072  158.7285 C.ar    1  UNL1        0.1339
      9 C         143.0061  143.4047  159.2321 C.ar    1  UNL1        0.1250
     10 C         142.9723  143.4303  160.7315 C.ar    1  UNL1        0.1776
     11 N         143.8072  142.7360  161.7663 N.ar    1  UNL1       -0.2109
     12 N         140.4831  145.4909  163.0354 N.pl3   1  UNL1       -0.3196
     13 H         140.5238  146.4483  162.8096 H       1  UNL1        0.1481
     14 C         139.3129  144.9505  163.8027 C.3     1  UNL1        0.0705
     15 C         138.0144  144.2001  163.8335 C.3     1  UNL1        0.0212
     16 C         138.5847  144.7647  165.1008 C.3     1  UNL1        0.0212
     17 C         143.9597  142.6153  158.3851 C.1     1  UNL1        0.1052
     18 N         144.9132  141.8258  157.5380 N.1     1  UNL1       -0.1907
     19 C         142.6641  141.8040  167.8128 C.ar    1  UNL1        0.0475
     20 C         143.3209  142.4500  166.6291 C.ar    1  UNL1        0.0290
     21 C         143.7123  141.6197  165.4426 C.ar    1  UNL1        0.0506
     22 C         143.4468  140.1434  165.4400 C.ar    1  UNL1        0.0144
     23 C         142.7899  139.4974  166.6238 C.ar    1  UNL1       -0.0018
     24 C         142.3985  140.3276  167.8101 C.ar    1  UNL1       -0.0089
     25 C         140.5559  144.1665  170.2053 C.3     1  UNL1        0.0949
     26 C         140.9472  143.3362  169.0189 C.2     1  UNL1        0.2266
     27 O         140.0131  143.2078  167.8524 O.2     1  UNL1       -0.2748
     28 N         142.2727  142.6343  168.9991 N.am    1  UNL1       -0.2841
     29 H         142.8858  142.7186  169.7648 H       1  UNL1        0.1548
     30 C         141.7417  139.6816  168.9938 C.3     1  UNL1        0.0236
     31 C         142.5562  138.8576  169.9464 C.3     1  UNL1        0.0047
     32 C         140.2703  139.8597  169.2249 C.3     1  UNL1        0.0047
@<TRIPOS>BOND
     1    25    26    1
     2    26    27    2
     3    26    28   am
     4    28    19    1
     5    19    20   ar
     6    20    21   ar
     7    21     1    1
     8     1     3    1
     9     3     4   ar
    10     4     5   ar
    11     5    12    1
    12    12    14    1
    13    14    15    1
    14    15    16    1
    15     5     6   ar
    16     6     7   ar
    17     7     8   ar
    18     8     9   ar
    19     9    17    1
    20    17    18    3
    21     9    10   ar
    22    10    11   ar
    23    21    22   ar
    24    22    23   ar
    25    23    24   ar
    26    24    30    1
    27    30    31    1
    28    30    32    1
    29    24    19   ar
    30    11     3   ar
    31    16    14    1
    32    10     6   ar
    33    28    29    1
    34     1     2    1
    35    12    13    1
@<TRIPOS>MOLECULE
*****
 32 35 0 0 0
SMALL
GASTEIGER

@<TRIPOS>ATOM
      1 N         144.0264  142.7386  164.1989 N.pl3   1  UNL1       -0.2978
      2 H         145.0047  142.8418  164.1606 H       1  UNL1        0.1536
      3 C         143.1718  143.2710  163.0870 C.ar    1  UNL1        0.1367
      4 C         141.9007  144.0022  163.4022 C.ar    1  UNL1        0.0685
      5 C         141.0461  144.5346  162.2902 C.ar    1  UNL1        0.1344
      6 N         141.4628  144.3357  160.8631 N.ar    1  UNL1       -0.1980
      7 N         140.8296  144.7448  159.5663 N.ar    1  UNL1       -0.1602
      8 C         141.7095  144.2663  158.4496 C.ar    1  UNL1        0.1339
      9 C         142.8865  143.5615  159.0562 C.ar    1  UNL1        0.1250
     10 C         142.7340  143.6044  160.5479 C.ar    1  UNL1        0.1776
     11 N         143.5885  143.0721  161.6598 N.ar    1  UNL1       -0.2109
     12 N         139.7749  145.2659  162.6055 N.pl3   1  UNL1       -0.3196
     13 H         139.4924  146.0255  162.0466 H       1  UNL1        0.1481
     14 C         138.9343  144.8397  163.7724 C.3     1  UNL1        0.0705
     15 C         138.6263  144.8920  165.2395 C.3     1  UNL1        0.0212
     16 C         137.7862  144.0491  164.3264 C.3     1  UNL1        0.0212
     17 C         144.0173  142.9256  158.3034 C.1     1  UNL1        0.1052
     18 N         145.1481  142.2896  157.5506 N.1     1  UNL1       -0.1907
     19 C         141.9301  140.1244  166.3254 C.ar    1  UNL1        0.0475
     20 C         142.5662  140.8140  165.1551 C.ar    1  UNL1        0.0290
     21 C         143.3903  142.0490  165.3693 C.ar    1  UNL1        0.0506
     22 C         143.5781  142.5943  166.7539 C.ar    1  UNL1        0.0144
     23 C         142.9420  141.9046  167.9244 C.ar    1  UNL1       -0.0018
     24 C         142.1180  140.6698  167.7101 C.ar    1  UNL1       -0.0089
     25 C         138.8481  137.7738  165.4731 C.3     1  UNL1        0.0949
     26 C         139.6721  139.0087  165.6874 C.2     1  UNL1        0.2266
     27 O         139.0622  140.3630  165.4781 O.2     1  UNL1       -0.2748
     28 N         141.1061  138.8894  166.1111 N.am    1  UNL1       -0.2841
     29 H         141.5064  138.0005  166.2485 H       1  UNL1        0.1548
     30 C         141.4819  139.9801  168.8805 C.3     1  UNL1        0.0236
     31 C         140.0280  140.1967  169.1790 C.3     1  UNL1        0.0047
     32 C         142.2997  139.0740  169.7523 C.3     1  UNL1        0.0047
@<TRIPOS>BOND
     1    25    26    1
     2    26    27    2
     3    26    28   am
     4    28    19    1
     5    19    20   ar
     6    20    21   ar
     7    21     1    1
     8     1     3    1
     9     3     4   ar
    10     4     5   ar
    11     5    12    1
    12    12    14    1
    13    14    15    1
    14    15    16    1
    15     5     6   ar
    16     6     7   ar
    17     7     8   ar
    18     8     9   ar
    19     9    17    1
    20    17    18    3
    21     9    10   ar
    22    10    11   ar
    23    21    22   ar
    24    22    23   ar
    25    23    24   ar
    26    24    30    1
    27    30    31    1
    28    30    32    1
    29    24    19   ar
    30    11     3   ar
    31    16    14    1
    32    10     6   ar
    33    28    29    1
    34     1     2    1
    35    12    13    1
@<TRIPOS>MOLECULE
*****
 32 35 0 0 0
SMALL
GASTEIGER

@<TRIPOS>ATOM
      1 N         139.5591  138.3844  160.2990 N.pl3   1  UNL1       -0.2978
      2 H         138.8850  137.9078  159.7628 H       1  UNL1        0.1536
      3 C         140.8108  138.8948  159.6487 C.ar    1  UNL1        0.1367
      4 C         141.5042  138.0697  158.6055 C.ar    1  UNL1        0.0685
      5 C         142.7559  138.5801  157.9552 C.ar    1  UNL1        0.1344
      6 N         143.3141  139.9157  158.3482 N.ar    1  UNL1       -0.1980
      7 N         144.5222  140.6744  157.8845 N.ar    1  UNL1       -0.1602
      8 C         144.5754  141.9684  158.6412 C.ar    1  UNL1        0.1339
      9 C         143.4003  142.0096  159.5725 C.ar    1  UNL1        0.1250
     10 C         142.6207  140.7409  159.3914 C.ar    1  UNL1        0.1776
     11 N         141.3691  140.2305  160.0417 N.ar    1  UNL1       -0.2109
     12 N         143.4492  137.7549  156.9119 N.pl3   1  UNL1       -0.3196
     13 H         144.1878  138.1420  156.3888 H       1  UNL1        0.1481
     14 C         143.0170  136.3397  156.6659 C.3     1  UNL1        0.0705
     15 C         142.0781  135.3609  156.0253 C.3     1  UNL1        0.0212
     16 C         143.2074  134.8674  156.8804 C.3     1  UNL1        0.0212
     17 C         143.0638  143.1237  160.5187 C.1     1  UNL1        0.1052
     18 N         142.7273  144.2379  161.4650 N.1     1  UNL1       -0.1907
     19 C         138.3924  140.0441  163.7100 C.ar    1  UNL1        0.0475
     20 C         138.6168  139.8282  162.2427 C.ar    1  UNL1        0.0290
     21 C         139.3347  138.6003  161.7663 C.ar    1  UNL1        0.0506
     22 C         139.8282  137.5882  162.7574 C.ar    1  UNL1        0.0144
     23 C         139.6038  137.8041  164.2248 C.ar    1  UNL1       -0.0018
     24 C         138.8860  139.0320  164.7010 C.ar    1  UNL1       -0.0089
     25 C         137.6943  143.8005  164.7835 C.3     1  UNL1        0.0949
     26 C         138.4122  142.5725  164.3073 C.2     1  UNL1        0.2266
     27 O         139.8677  142.6450  163.9521 O.2     1  UNL1       -0.2748
     28 N         137.6746  141.2721  164.1862 N.am    1  UNL1       -0.2841
     29 H         136.7192  141.2245  164.4193 H       1  UNL1        0.1548
     30 C         138.6615  139.2479  166.1683 C.3     1  UNL1        0.0236
     31 C         139.4825  140.2594  166.9117 C.3     1  UNL1        0.0047
     32 C         137.6161  138.4522  166.8922 C.3     1  UNL1        0.0047
@<TRIPOS>BOND
     1    25    26    1
     2    26    27    2
     3    26    28   am
     4    28    19    1
     5    19    20   ar
     6    20    21   ar
     7    21     1    1
     8     1     3    1
     9     3     4   ar
    10     4     5   ar
    11     5    12    1
    12    12    14    1
    13    14    15    1
    14    15    16    1
    15     5     6   ar
    16     6     7   ar
    17     7     8   ar
    18     8     9   ar
    19     9    17    1
    20    17    18    3
    21     9    10   ar
    22    10    11   ar
    23    21    22   ar
    24    22    23   ar
    25    23    24   ar
    26    24    30    1
    27    30    31    1
    28    30    32    1
    29    24    19   ar
    30    11     3   ar
    31    16    14    1
    32    10     6   ar
    33    28    29    1
    34     1     2    1
    35    12    13    1
@<TRIPOS>MOLECULE
*****
 32 35 0 0 0
SMALL
GASTEIGER

@<TRIPOS>ATOM
      1 N         139.5264  138.0279  160.8474 N.pl3   1  UNL1       -0.2978
      2 H         138.8606  137.5186  160.3311 H       1  UNL1        0.1536
      3 C         140.7839  138.5063  160.1842 C.ar    1  UNL1        0.1367
      4 C         142.0084  138.7791  161.0063 C.ar    1  UNL1        0.0685
      5 C         143.2660  139.2574  160.3431 C.ar    1  UNL1        0.1344
      6 N         143.2989  139.4630  158.8576 N.ar    1  UNL1       -0.1980
      7 N         144.3858  139.9228  157.9318 N.ar    1  UNL1       -0.1602
      8 C         143.8330  139.9342  156.5375 C.ar    1  UNL1        0.1339
      9 C         142.4044  139.4814  156.6015 C.ar    1  UNL1        0.1250
     10 C         142.0743  139.1902  158.0354 C.ar    1  UNL1        0.1776
     11 N         140.8168  138.7118  158.6987 N.ar    1  UNL1       -0.2109
     12 N         144.4905  139.5302  161.1654 N.pl3   1  UNL1       -0.3196
     13 H         145.3605  139.6629  160.7239 H       1  UNL1        0.1481
     14 C         144.3896  139.6008  162.6603 C.3     1  UNL1        0.0705
     15 C         145.0047  139.9222  163.9901 C.3     1  UNL1        0.0212
     16 C         143.5997  139.4017  163.9198 C.3     1  UNL1        0.0212
     17 C         141.4700  139.3440  155.4361 C.1     1  UNL1        0.1052
     18 N         140.5356  139.2066  154.2708 N.1     1  UNL1       -0.1907
     19 C         138.3682  139.9034  164.1477 C.ar    1  UNL1        0.0475
     20 C         138.6113  139.6056  162.6978 C.ar    1  UNL1        0.0290
     21 C         139.2833  138.3257  162.2973 C.ar    1  UNL1        0.0506
     22 C         139.7121  137.3436  163.3468 C.ar    1  UNL1        0.0144
     23 C         139.4690  137.6414  164.7968 C.ar    1  UNL1       -0.0018
     24 C         138.7971  138.9212  165.1972 C.ar    1  UNL1       -0.0089
     25 C         137.7734  143.7604  164.8689 C.3     1  UNL1        0.0949
     26 C         138.4453  142.4805  164.4685 C.2     1  UNL1        0.2266
     27 O         139.8664  142.4977  163.9886 O.2     1  UNL1       -0.2748
     28 N         137.6963  141.1833  164.5481 N.am    1  UNL1       -0.2841
     29 H         136.7636  141.1720  164.8631 H       1  UNL1        0.1548
     30 C         138.5540  139.2190  166.6471 C.3     1  UNL1        0.0236
     31 C         137.4417  138.5277  167.3784 C.3     1  UNL1        0.0047
     32 C         139.4232  140.2080  167.3656 C.3     1  UNL1        0.0047
@<TRIPOS>BOND
     1    25    26    1
     2    26    27    2
     3    26    28   am
     4    28    19    1
     5    19    20   ar
     6    20    21   ar
     7    21     1    1
     8     1     3    1
     9     3     4   ar
    10     4     5   ar
    11     5    12    1
    12    12    14    1
    13    14    15    1
    14    15    16    1
    15     5     6   ar
    16     6     7   ar
    17     7     8   ar
    18     8     9   ar
    19     9    17    1
    20    17    18    3
    21     9    10   ar
    22    10    11   ar
    23    21    22   ar
    24    22    23   ar
    25    23    24   ar
    26    24    30    1
    27    30    31    1
    28    30    32    1
    29    24    19   ar
    30    11     3   ar
    31    16    14    1
    32    10     6   ar
    33    28    29    1
    34     1     2    1
    35    12    13    1
@<TRIPOS>MOLECULE
*****
 32 35 0 0 0
SMALL
GASTEIGER

@<TRIPOS>ATOM
      1 N         144.1268  141.8107  164.1401 N.pl3   1  UNL1       -0.2978
      2 H         145.0657  141.6461  163.8939 H       1  UNL1        0.1536
      3 C         143.2491  142.6323  163.2431 C.ar    1  UNL1        0.1367
      4 C         143.5989  142.7925  161.7934 C.ar    1  UNL1        0.0685
      5 C         142.7212  143.6142  160.8963 C.ar    1  UNL1        0.1344
      6 N         141.4937  144.2757  161.4492 N.ar    1  UNL1       -0.1980
      7 N         140.4459  145.1396  160.8122 N.ar    1  UNL1       -0.1602
      8 C         139.4485  145.5133  161.8684 C.ar    1  UNL1        0.1339
      9 C         139.8799  144.8804  163.1581 C.ar    1  UNL1        0.1250
     10 C         141.1439  144.1155  162.8990 C.ar    1  UNL1        0.1776
     11 N         142.0216  143.2938  163.7960 N.ar    1  UNL1       -0.2109
     12 N         143.0711  143.7743  159.4465 N.pl3   1  UNL1       -0.3196
     13 H         142.7416  144.5540  158.9438 H       1  UNL1        0.1481
     14 C         143.9230  142.7464  158.7626 C.3     1  UNL1        0.0705
     15 C         145.1311  142.3955  157.9458 C.3     1  UNL1        0.0212
     16 C         144.1904  141.3170  158.3951 C.3     1  UNL1        0.0212
     17 C         139.1716  144.9927  164.4756 C.1     1  UNL1        0.1052
     18 N         138.4633  145.1050  165.7930 N.1     1  UNL1       -0.1907
     19 C         142.6600  141.5795  167.8206 C.ar    1  UNL1        0.0475
     20 C         143.2130  142.1503  166.5484 C.ar    1  UNL1        0.0290
     21 C         143.5739  141.2398  165.4123 C.ar    1  UNL1        0.0506
     22 C         143.3819  139.7584  165.5484 C.ar    1  UNL1        0.0144
     23 C         142.8289  139.1875  166.8206 C.ar    1  UNL1       -0.0018
     24 C         142.4680  140.0980  167.9566 C.ar    1  UNL1       -0.0089
     25 C         140.6117  144.1009  170.1003 C.3     1  UNL1        0.0949
     26 C         140.9726  143.1903  168.9643 C.2     1  UNL1        0.2266
     27 O         140.0071  142.9800  167.8358 O.2     1  UNL1       -0.2748
     28 N         142.2991  142.4901  168.9566 N.am    1  UNL1       -0.2841
     29 H         142.9329  142.6281  169.6973 H       1  UNL1        0.1548
     30 C         141.9151  139.5271  169.2288 C.3     1  UNL1        0.0236
     31 C         140.5001  139.8214  169.6301 C.3     1  UNL1        0.0047
     32 C         142.7772  138.6620  170.0996 C.3     1  UNL1        0.0047
@<TRIPOS>BOND
     1    25    26    1
     2    26    27    2
     3    26    28   am
     4    28    19    1
     5    19    20   ar
     6    20    21   ar
     7    21     1    1
     8     1     3    1
     9     3     4   ar
    10     4     5   ar
    11     5    12    1
    12    12    14    1
    13    14    15    1
    14    15    16    1
    15     5     6   ar
    16     6     7   ar
    17     7     8   ar
    18     8     9   ar
    19     9    17    1
    20    17    18    3
    21     9    10   ar
    22    10    11   ar
    23    21    22   ar
    24    22    23   ar
    25    23    24   ar
    26    24    30    1
    27    30    31    1
    28    30    32    1
    29    24    19   ar
    30    11     3   ar
    31    16    14    1
    32    10     6   ar
    33    28    29    1
    34     1     2    1
    35    12    13    1
@<TRIPOS>MOLECULE
*****
 32 35 0 0 0
SMALL
GASTEIGER

@<TRIPOS>ATOM
      1 N         143.7346  142.8124  161.3331 N.pl3   1  UNL1       -0.2978
      2 H         144.6187  142.7693  160.9023 H       1  UNL1        0.1536
      3 C         142.6626  143.6910  160.7593 C.ar    1  UNL1        0.1367
      4 C         141.5907  144.2454  161.6499 C.ar    1  UNL1        0.0685
      5 C         140.5188  145.1240  161.0761 C.ar    1  UNL1        0.1344
      6 N         140.5189  145.4480  159.6115 N.ar    1  UNL1       -0.1980
      7 N         139.5991  146.2797  158.7675 N.ar    1  UNL1       -0.1602
      8 C         140.1027  146.2392  157.3552 C.ar    1  UNL1        0.1339
      9 C         141.3337  145.3825  157.3263 C.ar    1  UNL1        0.1250
     10 C         141.5909  144.8935  158.7208 C.ar    1  UNL1        0.1776
     11 N         142.6628  144.0150  159.2947 N.ar    1  UNL1       -0.2109
     12 N         139.4468  145.6784  161.9669 N.pl3   1  UNL1       -0.3196
     13 H         139.2677  146.6465  161.9779 H       1  UNL1        0.1481
     14 C         138.6477  144.7579  162.8410 C.3     1  UNL1        0.0705
     15 C         138.1234  144.3822  164.1953 C.3     1  UNL1        0.0212
     16 C         137.7878  143.5393  163.0008 C.3     1  UNL1        0.0212
     17 C         142.1620  145.0697  156.1155 C.1     1  UNL1        0.1052
     18 N         142.9902  144.7570  154.9046 N.1     1  UNL1       -0.1907
     19 C         142.3173  139.9654  163.7072 C.ar    1  UNL1        0.0475
     20 C         142.5927  140.7783  162.4770 C.ar    1  UNL1        0.0290
     21 C         143.4592  141.9996  162.5633 C.ar    1  UNL1        0.0506
     22 C         144.0505  142.4081  163.8799 C.ar    1  UNL1        0.0144
     23 C         143.7752  141.5952  165.1103 C.ar    1  UNL1       -0.0018
     24 C         142.9086  140.3740  165.0239 C.ar    1  UNL1       -0.0089
     25 C         139.1071  137.6329  163.7714 C.3     1  UNL1        0.0949
     26 C         139.9737  138.8542  163.8578 C.2     1  UNL1        0.2266
     27 O         139.3632  140.1856  164.1813 O.2     1  UNL1       -0.2748
     28 N         141.4508  138.7441  163.6208 N.am    1  UNL1       -0.2841
     29 H         141.8514  137.8703  163.4085 H       1  UNL1        0.1548
     30 C         142.6333  139.5611  166.2541 C.3     1  UNL1        0.0236
     31 C         143.4998  138.3818  166.5832 C.3     1  UNL1        0.0047
     32 C         141.4915  139.9277  167.1552 C.3     1  UNL1        0.0047
@<TRIPOS>BOND
     1    25    26    1
     2    26    27    2
     3    26    28   am
     4    28    19    1
     5    19    20   ar
     6    20    21   ar
     7    21     1    1
     8     1     3    1
     9     3     4   ar
    10     4     5   ar
    11     5    12    1
    12    12    14    1
    13    14    15    1
    14    15    16    1
    15     5     6   ar
    16     6     7   ar
    17     7     8   ar
    18     8     9   ar
    19     9    17    1
    20    17    18    3
    21     9    10   ar
    22    10    11   ar
    23    21    22   ar
    24    22    23   ar
    25    23    24   ar
    26    24    30    1
    27    30    31    1
    28    30    32    1
    29    24    19   ar
    30    11     3   ar
    31    16    14    1
    32    10     6   ar
    33    28    29    1
    34     1     2    1
    35    12    13    1
@<TRIPOS>MOLECULE
*****
 32 35 0 0 0
SMALL
GASTEIGER

@<TRIPOS>ATOM
      1 N         140.0166  145.7600  162.5344 N.pl3   1  UNL1       -0.2978
      2 H         139.9996  146.7373  162.6520 H       1  UNL1        0.1536
      3 C         139.9327  145.1685  161.1584 C.ar    1  UNL1        0.1367
      4 C         140.4348  145.9441  159.9768 C.ar    1  UNL1        0.0685
      5 C         140.3509  145.3526  158.6008 C.ar    1  UNL1        0.1344
      6 N         139.7649  143.9855  158.4066 N.ar    1  UNL1       -0.1980
      7 N         139.5523  143.1498  157.1793 N.ar    1  UNL1       -0.1602
      8 C         138.9188  141.8577  157.6025 C.ar    1  UNL1        0.1339
      9 C         138.7399  141.8948  159.0914 C.ar    1  UNL1        0.1250
     10 C         139.2629  143.2100  159.5883 C.ar    1  UNL1        0.1776
     11 N         139.3468  143.8015  160.9642 N.ar    1  UNL1       -0.2109
     12 N         140.8530  146.1283  157.4191 N.pl3   1  UNL1       -0.3196
     13 H         141.8205  146.2555  157.2888 H       1  UNL1        0.1481
     14 C         139.8809  146.7100  156.4360 C.3     1  UNL1        0.0705
     15 C         139.1987  146.6632  155.1009 C.3     1  UNL1        0.0212
     16 C         138.8793  147.7643  156.0681 C.3     1  UNL1        0.0212
     17 C         138.1429  140.8078  159.9351 C.1     1  UNL1        0.1052
     18 N         137.5459  139.7207  160.7788 N.1     1  UNL1       -0.1907
     19 C         141.4559  143.1120  165.1164 C.ar    1  UNL1        0.0475
     20 C         141.3460  144.0097  163.9197 C.ar    1  UNL1        0.0290
     21 C         140.1264  144.8624  163.7311 C.ar    1  UNL1        0.0506
     22 C         139.0167  144.8174  164.7393 C.ar    1  UNL1        0.0144
     23 C         139.1265  143.9197  165.9361 C.ar    1  UNL1       -0.0018
     24 C         140.3460  143.0671  166.1246 C.ar    1  UNL1       -0.0089
     25 C         143.9652  140.0479  164.8620 C.3     1  UNL1        0.0949
     26 C         142.7456  140.9006  164.6735 C.2     1  UNL1        0.2266
     27 O         141.5961  140.3945  163.8534 O.2     1  UNL1       -0.2748
     28 N         142.6755  142.2593  165.3050 N.am    1  UNL1       -0.2841
     29 H         143.4299  142.5915  165.8432 H       1  UNL1        0.1548
     30 C         140.4559  142.1695  167.3213 C.3     1  UNL1        0.0236
     31 C         139.9847  140.7478  167.2383 C.3     1  UNL1        0.0047
     32 C         141.0369  142.6935  168.6011 C.3     1  UNL1        0.0047
@<TRIPOS>BOND
     1    25    26    1
     2    26    27    2
     3    26    28   am
     4    28    19    1
     5    19    20   ar
     6    20    21   ar
     7    21     1    1
     8     1     3    1
     9     3     4   ar
    10     4     5   ar
    11     5    12    1
    12    12    14    1
    13    14    15    1
    14    15    16    1
    15     5     6   ar
    16     6     7   ar
    17     7     8   ar
    18     8     9   ar
    19     9    17    1
    20    17    18    3
    21     9    10   ar
    22    10    11   ar
    23    21    22   ar
    24    22    23   ar
    25    23    24   ar
    26    24    30    1
    27    30    31    1
    28    30    32    1
    29    24    19   ar
    30    11     3   ar
    31    16    14    1
    32    10     6   ar
    33    28    29    1
    34     1     2    1
    35    12    13    1
@<TRIPOS>MOLECULE
*****
 32 35 0 0 0
SMALL
GASTEIGER

@<TRIPOS>ATOM
      1 N         140.0083  143.3612  165.5692 N.pl3   1  UNL1       -0.2978
      2 H         139.3291  143.8763  166.0618 H       1  UNL1        0.1536
      3 C         140.7658  142.2660  166.2598 C.ar    1  UNL1        0.1367
      4 C         141.5450  141.2695  165.4538 C.ar    1  UNL1        0.0685
      5 C         142.3024  140.1742  166.1444 C.ar    1  UNL1        0.1344
      6 N         142.2805  140.0756  167.6410 N.ar    1  UNL1       -0.1980
      7 N         142.9252  139.1121  168.5929 N.ar    1  UNL1       -0.1602
      8 C         142.5444  139.5133  169.9872 C.ar    1  UNL1        0.1339
      9 C         141.6643  140.7246  169.8970 C.ar    1  UNL1        0.1250
     10 C         141.5013  141.0722  168.4470 C.ar    1  UNL1        0.1776
     11 N         140.7439  142.1674  167.7564 N.ar    1  UNL1       -0.2109
     12 N         143.0817  139.1777  165.3383 N.pl3   1  UNL1       -0.3196
     13 H         142.9923  138.2153  165.5257 H       1  UNL1        0.1481
     14 C         143.9970  139.6475  164.2469 C.3     1  UNL1        0.0705
     15 C         144.3868  139.6708  162.7986 C.3     1  UNL1        0.0212
     16 C         145.1927  140.4379  163.8046 C.3     1  UNL1        0.0212
     17 C         141.0545  141.4594  171.0538 C.1     1  UNL1        0.1052
     18 N         140.4446  142.1942  172.2106 N.1     1  UNL1       -0.1907
     19 C         139.6497  143.4606  161.6180 C.ar    1  UNL1        0.0475
     20 C         139.3721  143.1502  163.0590 C.ar    1  UNL1        0.0290
     21 C         140.2859  143.6717  164.1282 C.ar    1  UNL1        0.0506
     22 C         141.4773  144.5037  163.7563 C.ar    1  UNL1        0.0144
     23 C         141.7549  144.8141  162.3152 C.ar    1  UNL1       -0.0018
     24 C         140.8411  144.2926  161.2461 C.ar    1  UNL1       -0.0089
     25 C         138.1479  141.1342  158.7750 C.3     1  UNL1        0.0949
     26 C         139.0617  141.6557  159.8441 C.2     1  UNL1        0.2266
     27 O         140.3015  140.8939  160.2083 O.2     1  UNL1       -0.2748
     28 N         138.7358  142.9391  160.5489 N.am    1  UNL1       -0.2841
     29 H         137.9221  143.4391  160.3099 H       1  UNL1        0.1548
     30 C         141.1187  144.6031  159.8051 C.3     1  UNL1        0.0236
     31 C         142.1989  143.8633  159.0731 C.3     1  UNL1        0.0047
     32 C         140.3160  145.6533  159.0961 C.3     1  UNL1        0.0047
@<TRIPOS>BOND
     1    25    26    1
     2    26    27    2
     3    26    28   am
     4    28    19    1
     5    19    20   ar
     6    20    21   ar
     7    21     1    1
     8     1     3    1
     9     3     4   ar
    10     4     5   ar
    11     5    12    1
    12    12    14    1
    13    14    15    1
    14    15    16    1
    15     5     6   ar
    16     6     7   ar
    17     7     8   ar
    18     8     9   ar
    19     9    17    1
    20    17    18    3
    21     9    10   ar
    22    10    11   ar
    23    21    22   ar
    24    22    23   ar
    25    23    24   ar
    26    24    30    1
    27    30    31    1
    28    30    32    1
    29    24    19   ar
    30    11     3   ar
    31    16    14    1
    32    10     6   ar
    33    28    29    1
    34     1     2    1
    35    12    13    1
