@<TRIPOS>MOLECULE
*****
 29 33 0 0 0
SMALL
GASTEIGER

@<TRIPOS>ATOM
      1 C         139.4917  140.3136  163.1739 C.3     1  UNL1        0.0181
      2 C         139.8908  141.0108  164.4407 C.3     1  UNL1        0.0036
      3 C         140.3889  141.4232  165.7942 C.3     1  UNL1        0.0227
      4 C         140.9454  140.2073  166.4737 C.3     1  UNL1        0.0870
      5 C         140.7912  139.0433  165.5402 C.3     1  UNL1        0.0227
      6 C         140.1395  139.5399  164.2838 C.3     1  UNL1        0.0036
      7 N         141.5499  140.1631  167.8458 N.ar    1  UNL1       -0.3108
      8 C         142.7139  139.3173  168.2696 C.ar    1  UNL1        0.1785
      9 N         142.9798  139.5884  169.7207 N.ar    1  UNL1       -0.2223
     10 C         141.9802  140.6017  170.1938 C.ar    1  UNL1        0.1179
     11 C         141.7604  141.2468  171.5300 C.ar    1  UNL1        0.1194
     12 N         140.6569  142.2472  171.7074 N.ar    1  UNL1       -0.2406
     13 C         139.7731  142.6024  170.5486 C.ar    1  UNL1        0.1005
     14 C         139.9928  141.9572  169.2125 C.ar    1  UNL1        0.0394
     15 C         141.0963  140.9569  169.0350 C.ar    1  UNL1        0.0820
     16 C         138.8872  140.3578  161.8019 C.3     1  UNL1        0.0718
     17 N         139.4768  141.2511  160.7510 N.am    1  UNL1       -0.3025
     18 C         138.8971  142.6141  160.5138 C.2     1  UNL1        0.2458
     19 O         137.7278  143.0838  161.3275 O.2     1  UNL1       -0.2701
     20 H         140.2443  140.9428  160.2169 H       1  UNL1        0.1497
     21 C         139.4868  143.5074  159.4629 C.ar    1  UNL1        0.0534
     22 C         140.3512  144.6663  159.8624 C.ar    1  UNL1        0.0054
     23 C         140.9408  145.5596  158.8115 C.ar    1  UNL1        0.0115
     24 C         140.6659  145.2939  157.3610 C.ar    1  UNL1        0.0577
     25 CL        141.2556  146.1872  156.3102 Cl      1  UNL1       -0.0822
     26 C         139.8015  144.1350  156.9614 C.ar    1  UNL1        0.0115
     27 C         139.2119  143.2417  158.0123 C.ar    1  UNL1        0.0054
     28 C         137.7265  138.0340  161.7522 C.3     1  UNL1        0.0017
     29 C         137.6931  139.5087  161.4806 C.3     1  UNL1        0.0196
@<TRIPOS>BOND
     1    28    29    1
     2    29    16    1
     3    16    17    1
     4    17    18   am
     5    18    19    2
     6    18    21    1
     7    21    22   ar
     8    22    23   ar
     9    23    24   ar
    10    24    25    1
    11    24    26   ar
    12    26    27   ar
    13     1    16    1
    14     1     2    1
    15     2     3    1
    16     3     4    1
    17     4     7    1
    18     7     8   ar
    19     8     9   ar
    20     9    10   ar
    21    10    11   ar
    22    11    12   ar
    23    12    13   ar
    24    13    14   ar
    25    14    15   ar
    26     4     5    1
    27     6     5    1
    28    27    21   ar
    29     6     1    1
    30     6     2    1
    31    15     7   ar
    32    15    10   ar
    33    17    20    1
@<TRIPOS>MOLECULE
*****
 29 33 0 0 0
SMALL
GASTEIGER

@<TRIPOS>ATOM
      1 C         142.2268  137.4341  157.4245 C.3     1  UNL1        0.0181
      2 C         141.6044  136.5061  156.4238 C.3     1  UNL1        0.0036
      3 C         141.2684  135.4503  155.4125 C.3     1  UNL1        0.0227
      4 C         142.5075  134.6459  155.1529 C.3     1  UNL1        0.0870
      5 C         143.6095  135.2044  156.0037 C.3     1  UNL1        0.0227
      6 C         143.0513  136.3540  156.7891 C.3     1  UNL1        0.0036
      7 N         142.6243  133.4866  154.2083 N.ar    1  UNL1       -0.3108
      8 C         141.9948  133.3888  152.8504 C.ar    1  UNL1        0.1785
      9 N         142.3726  132.0632  152.2587 N.ar    1  UNL1       -0.2223
     10 C         143.2356  131.3417  153.2510 C.ar    1  UNL1        0.1179
     11 C         143.8998  129.9974  153.2131 C.ar    1  UNL1        0.1194
     12 N         144.7196  129.5327  154.3801 N.ar    1  UNL1       -0.2406
     13 C         144.8752  130.4124  155.5850 C.ar    1  UNL1        0.1005
     14 C         144.2110  131.7567  155.6230 C.ar    1  UNL1        0.0394
     15 C         143.3912  132.2214  154.4560 C.ar    1  UNL1        0.0820
     16 C         142.1100  138.5934  158.3691 C.3     1  UNL1        0.0718
     17 N         141.2627  138.4747  159.6011 N.am    1  UNL1       -0.3025
     18 C         141.8647  137.9726  160.8799 C.2     1  UNL1        0.2458
     19 O         143.3141  137.5891  160.9267 O.2     1  UNL1       -0.2701
     20 H         140.3114  138.7264  159.5704 H       1  UNL1        0.1497
     21 C         141.0173  137.8539  162.1120 C.ar    1  UNL1        0.0534
     22 C         141.6614  137.6125  163.4449 C.ar    1  UNL1        0.0054
     23 C         140.8140  137.4938  164.6769 C.ar    1  UNL1        0.0115
     24 C         139.3225  137.6165  164.5759 C.ar    1  UNL1        0.0577
     25 CL        138.4751  137.4978  165.8079 Cl      1  UNL1       -0.0822
     26 C         138.6783  137.8579  163.2430 C.ar    1  UNL1        0.0115
     27 C         139.5257  137.9765  162.0110 C.ar    1  UNL1        0.0054
     28 C         143.7820  139.9518  156.9166 C.3     1  UNL1        0.0017
     29 C         142.8407  139.8716  158.0817 C.3     1  UNL1        0.0196
@<TRIPOS>BOND
     1    28    29    1
     2    29    16    1
     3    16    17    1
     4    17    18   am
     5    18    19    2
     6    18    21    1
     7    21    22   ar
     8    22    23   ar
     9    23    24   ar
    10    24    25    1
    11    24    26   ar
    12    26    27   ar
    13     1    16    1
    14     1     2    1
    15     2     3    1
    16     3     4    1
    17     4     7    1
    18     7     8   ar
    19     8     9   ar
    20     9    10   ar
    21    10    11   ar
    22    11    12   ar
    23    12    13   ar
    24    13    14   ar
    25    14    15   ar
    26     4     5    1
    27     6     5    1
    28    27    21   ar
    29     6     1    1
    30     6     2    1
    31    15     7   ar
    32    15    10   ar
    33    17    20    1
@<TRIPOS>MOLECULE
*****
 29 33 0 0 0
SMALL
GASTEIGER

@<TRIPOS>ATOM
      1 C         143.5308  139.5165  162.1145 C.3     1  UNL1        0.0181
      2 C         143.2659  138.3088  161.2652 C.3     1  UNL1        0.0036
      3 C         142.9517  137.3122  160.1890 C.3     1  UNL1        0.0227
      4 C         142.6608  138.0688  158.9270 C.3     1  UNL1        0.0870
      5 C         142.7951  139.5332  159.2231 C.3     1  UNL1        0.0227
      6 C         143.1691  139.6815  160.6681 C.3     1  UNL1        0.0036
      7 N         142.2990  137.4669  157.6016 N.ar    1  UNL1       -0.3108
      8 C         141.5009  138.1319  156.5196 C.ar    1  UNL1        0.1785
      9 N         141.3804  137.1702  155.3748 N.ar    1  UNL1       -0.2223
     10 C         142.1042  135.9108  155.7492 C.ar    1  UNL1        0.1179
     11 C         142.3196  134.6208  155.0147 C.ar    1  UNL1        0.1194
     12 N         143.1027  133.5142  155.6566 N.ar    1  UNL1       -0.2406
     13 C         143.6704  133.6975  157.0328 C.ar    1  UNL1        0.1005
     14 C         143.4550  134.9875  157.7673 C.ar    1  UNL1        0.0394
     15 C         142.6719  136.0942  157.1255 C.ar    1  UNL1        0.0820
     16 C         143.8926  140.1184  163.4399 C.3     1  UNL1        0.0718
     17 N         142.8367  140.3177  164.4865 N.am    1  UNL1       -0.3025
     18 C         142.8109  139.4399  165.7025 C.2     1  UNL1        0.2458
     19 O         143.8411  138.3629  165.8720 O.2     1  UNL1       -0.2701
     20 H         142.1605  141.0246  164.3752 H       1  UNL1        0.1497
     21 C         141.7549  139.6391  166.7491 C.ar    1  UNL1        0.0534
     22 C         140.3082  139.6834  166.3559 C.ar    1  UNL1        0.0054
     23 C         139.2522  139.8827  167.4024 C.ar    1  UNL1        0.0115
     24 C         139.6431  140.0376  168.8423 C.ar    1  UNL1        0.0577
     25 CL        138.5871  140.2368  169.8888 Cl      1  UNL1       -0.0822
     26 C         141.0899  139.9933  169.2356 C.ar    1  UNL1        0.0115
     27 C         142.1459  139.7941  168.1890 C.ar    1  UNL1        0.0054
     28 C         145.6802  141.9738  163.7749 C.3     1  UNL1        0.0017
     29 C         145.3104  140.5212  163.7188 C.3     1  UNL1        0.0196
@<TRIPOS>BOND
     1    28    29    1
     2    29    16    1
     3    16    17    1
     4    17    18   am
     5    18    19    2
     6    18    21    1
     7    21    22   ar
     8    22    23   ar
     9    23    24   ar
    10    24    25    1
    11    24    26   ar
    12    26    27   ar
    13     1    16    1
    14     1     2    1
    15     2     3    1
    16     3     4    1
    17     4     7    1
    18     7     8   ar
    19     8     9   ar
    20     9    10   ar
    21    10    11   ar
    22    11    12   ar
    23    12    13   ar
    24    13    14   ar
    25    14    15   ar
    26     4     5    1
    27     6     5    1
    28    27    21   ar
    29     6     1    1
    30     6     2    1
    31    15     7   ar
    32    15    10   ar
    33    17    20    1
@<TRIPOS>MOLECULE
*****
 29 33 0 0 0
SMALL
GASTEIGER

@<TRIPOS>ATOM
      1 C         141.3337  142.8840  162.9041 C.3     1  UNL1        0.0181
      2 C         142.0405  142.8870  164.2272 C.3     1  UNL1        0.0036
      3 C         142.5522  142.6538  165.6178 C.3     1  UNL1        0.0227
      4 C         141.7671  141.5252  166.2176 C.3     1  UNL1        0.0870
      5 C         140.7701  141.0608  165.1976 C.3     1  UNL1        0.0227
      6 C         140.9391  141.9024  163.9675 C.3     1  UNL1        0.0036
      7 N         141.9473  140.9602  167.5953 N.ar    1  UNL1       -0.3108
      8 C         142.7364  139.7347  167.9494 C.ar    1  UNL1        0.1785
      9 N         142.6468  139.5386  169.4338 N.ar    1  UNL1       -0.2223
     10 C         141.8022  140.6429  169.9972 C.ar    1  UNL1        0.1179
     11 C         141.3711  140.9619  171.3980 C.ar    1  UNL1        0.1194
     12 N         140.5076  142.1595  171.6625 N.ar    1  UNL1       -0.2406
     13 C         140.0752  143.0381  170.5262 C.ar    1  UNL1        0.1005
     14 C         140.5064  142.7191  169.1254 C.ar    1  UNL1        0.0394
     15 C         141.3699  141.5215  168.8609 C.ar    1  UNL1        0.0820
     16 C         141.1535  143.4490  161.5264 C.3     1  UNL1        0.0718
     17 N         141.7381  142.7383  160.3419 N.am    1  UNL1       -0.3025
     18 C         143.2193  142.7658  160.1067 C.2     1  UNL1        0.2458
     19 O         144.1159  143.5041  161.0560 O.2     1  UNL1       -0.2701
     20 H         141.1497  142.2538  159.7189 H       1  UNL1        0.1497
     21 C         143.8040  142.0550  158.9221 C.ar    1  UNL1        0.0534
     22 C         145.0429  142.5868  158.2648 C.ar    1  UNL1        0.0054
     23 C         145.6275  141.8761  157.0803 C.ar    1  UNL1        0.0115
     24 C         144.9732  140.6335  156.5532 C.ar    1  UNL1        0.0577
     25 CL        145.5578  139.9228  155.3687 Cl      1  UNL1       -0.0822
     26 C         143.7342  140.1017  157.2105 C.ar    1  UNL1        0.0115
     27 C         143.1495  140.8124  158.3950 C.ar    1  UNL1        0.0054
     28 C         139.5489  145.2724  162.4488 C.3     1  UNL1        0.0017
     29 C         140.3886  144.7249  161.3331 C.3     1  UNL1        0.0196
@<TRIPOS>BOND
     1    28    29    1
     2    29    16    1
     3    16    17    1
     4    17    18   am
     5    18    19    2
     6    18    21    1
     7    21    22   ar
     8    22    23   ar
     9    23    24   ar
    10    24    25    1
    11    24    26   ar
    12    26    27   ar
    13     1    16    1
    14     1     2    1
    15     2     3    1
    16     3     4    1
    17     4     7    1
    18     7     8   ar
    19     8     9   ar
    20     9    10   ar
    21    10    11   ar
    22    11    12   ar
    23    12    13   ar
    24    13    14   ar
    25    14    15   ar
    26     4     5    1
    27     6     5    1
    28    27    21   ar
    29     6     1    1
    30     6     2    1
    31    15     7   ar
    32    15    10   ar
    33    17    20    1
@<TRIPOS>MOLECULE
*****
 29 33 0 0 0
SMALL
GASTEIGER

@<TRIPOS>ATOM
      1 C         142.0980  138.7096  157.6816 C.3     1  UNL1        0.0181
      2 C         141.8727  139.4048  158.9916 C.3     1  UNL1        0.0036
      3 C         141.3497  140.1168  160.2039 C.3     1  UNL1        0.0227
      4 C         139.8796  140.3430  160.0105 C.3     1  UNL1        0.0870
      5 C         139.4938  139.7708  158.6787 C.3     1  UNL1        0.0227
      6 C         140.7256  139.1909  158.0490 C.3     1  UNL1        0.0036
      7 N         138.9571  141.0222  160.9789 N.ar    1  UNL1       -0.3108
      8 C         137.8109  140.3803  161.7029 C.ar    1  UNL1        0.1785
      9 N         137.1643  141.4239  162.5647 N.ar    1  UNL1       -0.2223
     10 C         137.9108  142.7108  162.3733 C.ar    1  UNL1        0.1179
     11 C         137.7248  144.0766  162.9648 C.ar    1  UNL1        0.1194
     12 N         138.6469  145.1941  162.5763 N.ar    1  UNL1       -0.2406
     13 C         139.7549  144.9458  161.5962 C.ar    1  UNL1        0.1005
     14 C         139.9409  143.5800  161.0046 C.ar    1  UNL1        0.0394
     15 C         139.0189  142.4625  161.3932 C.ar    1  UNL1        0.0820
     16 C         143.0204  138.0305  156.7132 C.3     1  UNL1        0.0718
     17 N         143.3965  136.5929  156.9179 N.am    1  UNL1       -0.3025
     18 C         142.5066  135.5034  156.3973 C.2     1  UNL1        0.2458
     19 O         141.2406  135.8515  155.6719 O.2     1  UNL1       -0.2701
     20 H         144.2274  136.3644  157.3940 H       1  UNL1        0.1497
     21 C         142.8827  134.0657  156.6020 C.ar    1  UNL1        0.0534
     22 C         142.0887  132.9808  155.9369 C.ar    1  UNL1        0.0054
     23 C         142.4648  131.5432  156.1416 C.ar    1  UNL1        0.0115
     24 C         143.6348  131.1906  157.0114 C.ar    1  UNL1        0.0577
     25 CL        144.0109  129.7530  157.2161 Cl      1  UNL1       -0.0822
     26 C         144.4288  132.2756  157.6766 C.ar    1  UNL1        0.0115
     27 C         144.0528  133.7132  157.4719 C.ar    1  UNL1        0.0054
     28 C         144.4635  139.9706  155.7626 C.3     1  UNL1        0.0017
     29 C         143.5669  138.7889  155.5401 C.3     1  UNL1        0.0196
@<TRIPOS>BOND
     1    28    29    1
     2    29    16    1
     3    16    17    1
     4    17    18   am
     5    18    19    2
     6    18    21    1
     7    21    22   ar
     8    22    23   ar
     9    23    24   ar
    10    24    25    1
    11    24    26   ar
    12    26    27   ar
    13     1    16    1
    14     1     2    1
    15     2     3    1
    16     3     4    1
    17     4     7    1
    18     7     8   ar
    19     8     9   ar
    20     9    10   ar
    21    10    11   ar
    22    11    12   ar
    23    12    13   ar
    24    13    14   ar
    25    14    15   ar
    26     4     5    1
    27     6     5    1
    28    27    21   ar
    29     6     1    1
    30     6     2    1
    31    15     7   ar
    32    15    10   ar
    33    17    20    1
@<TRIPOS>MOLECULE
*****
 29 33 0 0 0
SMALL
GASTEIGER

@<TRIPOS>ATOM
      1 C         140.1634  137.2595  156.0164 C.3     1  UNL1        0.0181
      2 C         139.5155  138.5832  156.2958 C.3     1  UNL1        0.0036
      3 C         138.9513  139.8482  156.8717 C.3     1  UNL1        0.0227
      4 C         139.2165  139.8442  158.3480 C.3     1  UNL1        0.0870
      5 C         139.9446  138.5767  158.6846 C.3     1  UNL1        0.0227
      6 C         140.1294  137.7974  157.4163 C.3     1  UNL1        0.0036
      7 N         138.8228  140.9189  159.3175 N.ar    1  UNL1       -0.3108
      8 C         138.7026  142.3822  159.0106 C.ar    1  UNL1        0.1785
      9 N         138.2857  143.0866  160.2676 N.ar    1  UNL1       -0.2223
     10 C         138.1483  142.0587  161.3513 C.ar    1  UNL1        0.1179
     11 C         137.7638  142.1695  162.7969 C.ar    1  UNL1        0.1194
     12 N         137.7113  140.9405  163.6553 N.ar    1  UNL1       -0.2406
     13 C         138.0433  139.6008  163.0681 C.ar    1  UNL1        0.1005
     14 C         138.4278  139.4899  161.6225 C.ar    1  UNL1        0.0394
     15 C         138.4803  140.7189  160.7641 C.ar    1  UNL1        0.0820
     16 C         140.5571  136.1848  155.0470 C.3     1  UNL1        0.0718
     17 N         141.1320  134.8942  155.5507 N.am    1  UNL1       -0.3025
     18 C         142.5211  134.8618  156.1159 C.2     1  UNL1        0.2458
     19 O         143.3353  136.1201  156.1773 O.2     1  UNL1       -0.2701
     20 H         140.5976  134.0683  155.5104 H       1  UNL1        0.1497
     21 C         143.0960  133.5711  156.6197 C.ar    1  UNL1        0.0534
     22 C         144.3089  133.5841  157.5019 C.ar    1  UNL1        0.0054
     23 C         144.8838  132.2934  158.0056 C.ar    1  UNL1        0.0115
     24 C         144.2456  130.9898  157.6271 C.ar    1  UNL1        0.0577
     25 CL        144.8205  129.6992  158.1309 Cl      1  UNL1       -0.0822
     26 C         143.0326  130.9768  156.7449 C.ar    1  UNL1        0.0115
     27 C         142.4577  132.2675  156.2411 C.ar    1  UNL1        0.0054
     28 C         141.4161  135.9108  152.6104 C.3     1  UNL1        0.0017
     29 C         140.3760  136.4007  153.5736 C.3     1  UNL1        0.0196
@<TRIPOS>BOND
     1    28    29    1
     2    29    16    1
     3    16    17    1
     4    17    18   am
     5    18    19    2
     6    18    21    1
     7    21    22   ar
     8    22    23   ar
     9    23    24   ar
    10    24    25    1
    11    24    26   ar
    12    26    27   ar
    13     1    16    1
    14     1     2    1
    15     2     3    1
    16     3     4    1
    17     4     7    1
    18     7     8   ar
    19     8     9   ar
    20     9    10   ar
    21    10    11   ar
    22    11    12   ar
    23    12    13   ar
    24    13    14   ar
    25    14    15   ar
    26     4     5    1
    27     6     5    1
    28    27    21   ar
    29     6     1    1
    30     6     2    1
    31    15     7   ar
    32    15    10   ar
    33    17    20    1
@<TRIPOS>MOLECULE
*****
 29 33 0 0 0
SMALL
GASTEIGER

@<TRIPOS>ATOM
      1 C         137.1916  141.0889  156.6035 C.3     1  UNL1        0.0181
      2 C         138.0295  142.2472  157.0577 C.3     1  UNL1        0.0036
      3 C         138.8679  143.2548  157.7870 C.3     1  UNL1        0.0227
      4 C         139.0455  142.7763  159.1974 C.3     1  UNL1        0.0870
      5 C         138.3170  141.4729  159.3399 C.3     1  UNL1        0.0227
      6 C         137.6890  141.1459  158.0175 C.3     1  UNL1        0.0036
      7 N         139.8164  143.4780  160.2761 N.ar    1  UNL1       -0.3108
      8 C         141.2091  144.0214  160.1533 C.ar    1  UNL1        0.1785
      9 N         141.5833  144.6386  161.4682 N.ar    1  UNL1       -0.2223
     10 C         140.4219  144.4767  162.4036 C.ar    1  UNL1        0.1179
     11 C         140.2177  144.8897  163.8310 C.ar    1  UNL1        0.1194
     12 N         138.9214  144.5854  164.5217 N.ar    1  UNL1       -0.2406
     13 C         137.8294  143.8681  163.7848 C.ar    1  UNL1        0.1005
     14 C         138.0336  143.4551  162.3574 C.ar    1  UNL1        0.0394
     15 C         139.3299  143.7593  161.6668 C.ar    1  UNL1        0.0820
     16 C         136.4207  140.3873  155.5249 C.3     1  UNL1        0.0718
     17 N         134.9624  140.6813  155.3329 N.am    1  UNL1       -0.3025
     18 C         133.9685  140.2576  156.3734 C.2     1  UNL1        0.2458
     19 O         134.4329  139.5399  157.6060 O.2     1  UNL1       -0.2701
     20 H         134.6576  141.1523  154.5239 H       1  UNL1        0.1497
     21 C         132.5101  140.5517  156.1813 C.ar    1  UNL1        0.0534
     22 C         132.0816  141.6360  155.2378 C.ar    1  UNL1        0.0054
     23 C         130.6233  141.9301  155.0457 C.ar    1  UNL1        0.0115
     24 C         129.5936  141.1397  155.7972 C.ar    1  UNL1        0.0577
     25 CL        128.1353  141.4338  155.6052 Cl      1  UNL1       -0.0822
     26 C         130.0221  140.0553  156.7409 C.ar    1  UNL1        0.0115
     27 C         131.4804  139.7612  156.9330 C.ar    1  UNL1        0.0054
     28 C         136.3645  138.1845  154.1485 C.3     1  UNL1        0.0017
     29 C         137.1081  139.3915  154.6383 C.3     1  UNL1        0.0196
@<TRIPOS>BOND
     1    28    29    1
     2    29    16    1
     3    16    17    1
     4    17    18   am
     5    18    19    2
     6    18    21    1
     7    21    22   ar
     8    22    23   ar
     9    23    24   ar
    10    24    25    1
    11    24    26   ar
    12    26    27   ar
    13     1    16    1
    14     1     2    1
    15     2     3    1
    16     3     4    1
    17     4     7    1
    18     7     8   ar
    19     8     9   ar
    20     9    10   ar
    21    10    11   ar
    22    11    12   ar
    23    12    13   ar
    24    13    14   ar
    25    14    15   ar
    26     4     5    1
    27     6     5    1
    28    27    21   ar
    29     6     1    1
    30     6     2    1
    31    15     7   ar
    32    15    10   ar
    33    17    20    1
@<TRIPOS>MOLECULE
*****
 29 33 0 0 0
SMALL
GASTEIGER

@<TRIPOS>ATOM
      1 C         140.0193  141.2430  162.9278 C.3     1  UNL1        0.0181
      2 C         140.5702  140.3064  163.9620 C.3     1  UNL1        0.0036
      3 C         141.1109  139.6221  165.1824 C.3     1  UNL1        0.0227
      4 C         141.1777  140.6323  166.2891 C.3     1  UNL1        0.0870
      5 C         140.6782  141.9411  165.7528 C.3     1  UNL1        0.0227
      6 C         140.3028  141.7397  164.3146 C.3     1  UNL1        0.0036
      7 N         141.6593  140.3784  167.6868 N.ar    1  UNL1       -0.3108
      8 C         142.6883  139.3660  168.0946 C.ar    1  UNL1        0.1785
      9 N         142.8614  139.4543  169.5819 N.ar    1  UNL1       -0.2223
     10 C         141.9394  140.5212  170.0934 C.ar    1  UNL1        0.1179
     11 C         141.6805  141.0465  171.4743 C.ar    1  UNL1        0.1194
     12 N         140.6785  142.1429  171.6840 N.ar    1  UNL1       -0.2406
     13 C         139.9356  142.7140  170.5127 C.ar    1  UNL1        0.1005
     14 C         140.1946  142.1888  169.1318 C.ar    1  UNL1        0.0394
     15 C         141.1965  141.0924  168.9222 C.ar    1  UNL1        0.0820
     16 C         139.5377  141.4969  161.5302 C.3     1  UNL1        0.0718
     17 N         140.1908  140.7999  160.3736 N.am    1  UNL1       -0.3025
     18 C         139.9679  139.3320  160.1597 C.2     1  UNL1        0.2458
     19 O         139.0920  138.5612  161.1023 O.2     1  UNL1       -0.2701
     20 H         140.7656  141.3058  159.7549 H       1  UNL1        0.1497
     21 C         140.6210  138.6350  159.0030 C.ar    1  UNL1        0.0534
     22 C         139.7853  138.1194  157.8692 C.ar    1  UNL1        0.0054
     23 C         140.4383  137.4224  156.7126 C.ar    1  UNL1        0.0115
     24 C         141.9272  137.2410  156.6899 C.ar    1  UNL1        0.0577
     25 CL        142.5802  136.5440  155.5333 Cl      1  UNL1       -0.0822
     26 C         142.7629  137.7567  157.8237 C.ar    1  UNL1        0.0115
     27 C         142.1099  138.4537  158.9803 C.ar    1  UNL1        0.0054
     28 C         137.7964  143.1983  162.4373 C.3     1  UNL1        0.0017
     29 C         138.4030  142.4479  161.2890 C.3     1  UNL1        0.0196
@<TRIPOS>BOND
     1    28    29    1
     2    29    16    1
     3    16    17    1
     4    17    18   am
     5    18    19    2
     6    18    21    1
     7    21    22   ar
     8    22    23   ar
     9    23    24   ar
    10    24    25    1
    11    24    26   ar
    12    26    27   ar
    13     1    16    1
    14     1     2    1
    15     2     3    1
    16     3     4    1
    17     4     7    1
    18     7     8   ar
    19     8     9   ar
    20     9    10   ar
    21    10    11   ar
    22    11    12   ar
    23    12    13   ar
    24    13    14   ar
    25    14    15   ar
    26     4     5    1
    27     6     5    1
    28    27    21   ar
    29     6     1    1
    30     6     2    1
    31    15     7   ar
    32    15    10   ar
    33    17    20    1
@<TRIPOS>MOLECULE
*****
 29 33 0 0 0
SMALL
GASTEIGER

@<TRIPOS>ATOM
      1 C         140.1663  138.2257  157.5110 C.3     1  UNL1        0.0181
      2 C         139.2255  139.0513  158.3376 C.3     1  UNL1        0.0036
      3 C         138.4746  139.7970  159.4008 C.3     1  UNL1        0.0227
      4 C         139.1863  139.5875  160.7044 C.3     1  UNL1        0.0870
      5 C         140.3771  138.7124  160.4471 C.3     1  UNL1        0.0227
      6 C         140.4013  138.3810  158.9844 C.3     1  UNL1        0.0036
      7 N         138.7788  140.1538  162.0324 N.ar    1  UNL1       -0.3108
      8 C         138.3647  141.5710  162.2969 C.ar    1  UNL1        0.1785
      9 N         138.0439  141.6952  163.7569 N.ar    1  UNL1       -0.2223
     10 C         138.2597  140.3548  164.3947 C.ar    1  UNL1        0.1179
     11 C         138.1014  139.8787  165.8082 C.ar    1  UNL1        0.1194
     12 N         138.3972  138.4499  166.1559 N.ar    1  UNL1       -0.2406
     13 C         138.8515  137.4972  165.0901 C.ar    1  UNL1        0.1005
     14 C         139.0098  137.9733  163.6765 C.ar    1  UNL1        0.0394
     15 C         138.7140  139.4021  163.3288 C.ar    1  UNL1        0.0820
     16 C         140.5738  137.6595  156.1831 C.3     1  UNL1        0.0718
     17 N         141.1238  136.2666  156.0987 N.am    1  UNL1       -0.3025
     18 C         142.5481  135.9979  156.4847 C.2     1  UNL1        0.2458
     19 O         143.4225  137.1222  156.9552 O.2     1  UNL1       -0.2701
     20 H         140.5499  135.5287  155.7899 H       1  UNL1        0.1497
     21 C         143.0981  134.6048  156.4002 C.ar    1  UNL1        0.0534
     22 C         143.8714  134.0328  157.5511 C.ar    1  UNL1        0.0054
     23 C         144.4214  132.6398  157.4666 C.ar    1  UNL1        0.0115
     24 C         144.1980  131.8189  156.2312 C.ar    1  UNL1        0.0577
     25 CL        144.7480  130.4259  156.1467 Cl      1  UNL1       -0.0822
     26 C         143.4246  132.3910  155.0803 C.ar    1  UNL1        0.0115
     27 C         142.8747  133.7840  155.1647 C.ar    1  UNL1        0.0054
     28 C         139.2366  139.3757  154.7631 C.3     1  UNL1        0.0017
     29 C         140.4313  138.4863  154.9396 C.3     1  UNL1        0.0196
@<TRIPOS>BOND
     1    28    29    1
     2    29    16    1
     3    16    17    1
     4    17    18   am
     5    18    19    2
     6    18    21    1
     7    21    22   ar
     8    22    23   ar
     9    23    24   ar
    10    24    25    1
    11    24    26   ar
    12    26    27   ar
    13     1    16    1
    14     1     2    1
    15     2     3    1
    16     3     4    1
    17     4     7    1
    18     7     8   ar
    19     8     9   ar
    20     9    10   ar
    21    10    11   ar
    22    11    12   ar
    23    12    13   ar
    24    13    14   ar
    25    14    15   ar
    26     4     5    1
    27     6     5    1
    28    27    21   ar
    29     6     1    1
    30     6     2    1
    31    15     7   ar
    32    15    10   ar
    33    17    20    1
