@<TRIPOS>MOLECULE
*****
 40 42 0 0 0
SMALL
GASTEIGER

@<TRIPOS>ATOM
      1 C         141.8779  138.5383  165.2101 C.3     1  UNL1        0.1524
      2 N         140.4459  140.2038  166.5976 N.am    1  UNL1       -0.3048
      3 C         141.6396  139.3034  166.4780 C.2     1  UNL1        0.2383
      4 O         142.5951  139.1682  167.6264 O.2     1  UNL1       -0.2736
      5 H         139.8188  140.2925  165.8438 H       1  UNL1        0.1494
      6 C         139.3445  139.8130  168.6660 C.3     1  UNL1        0.0001
      7 C         139.9225  141.1962  168.7179 C.3     1  UNL1        0.0015
      8 C         140.0527  140.2761  167.5404 C.3     1  UNL1        0.0001
      9 C         139.4612  141.5637  170.0970 C.3     1  UNL1        0.0017
     10 C         139.9354  142.9566  170.3886 C.3     1  UNL1        0.0001
     11 C         140.6898  143.4499  169.1896 C.3     1  UNL1        0.0016
     12 C         140.6818  142.3619  168.1571 C.3     1  UNL1        0.0165
     13 C         141.3209  142.4280  166.8017 C.3     1  UNL1        0.0016
     14 C         140.2076  140.9690  167.8655 C.3     1  UNL1        0.0715
     15 C         139.4531  140.4757  169.0645 C.3     1  UNL1        0.0196
     16 N         140.8140  137.6277  164.6724 N.3     1  UNL1       -0.1620
     17 H         140.3825  137.1720  165.4764 H       1  UNL1        0.1504
     18 S         139.6978  138.1872  163.8411 S.O2    1  UNL1        0.0964
     19 O         138.7810  138.1193  165.0263 O.2     1  UNL1       -0.1413
     20 O         140.0270  138.2941  163.1230 O.2     1  UNL1       -0.1413
     21 N         138.5816  138.7467  163.0098 N.3     1  UNL1       -0.1655
     22 H         137.7113  138.4993  163.4806 H       1  UNL1        0.1502
     23 C         138.5197  140.2192  162.7309 C.3     1  UNL1        0.1126
     24 C         137.9518  140.7136  161.4335 C.2     1  UNL1        0.0662
     25 O         137.1612  139.7861  160.5590 O.co2   1  UNL1       -0.5478
     26 O         138.1746  142.1354  161.0106 O.co2   1  UNL1       -0.5478
     27 C         139.0255  141.1975  163.7494 C.3     1  UNL1        0.0232
     28 C         138.0583  142.0515  164.5141 C.3     1  UNL1        0.0032
     29 C         138.3988  143.4797  164.8210 C.3     1  UNL1        0.0169
     30 C         138.5092  144.4801  163.7088 C.3     1  UNL1        0.0651
     31 N         137.4947  144.4883  162.6041 N.3     1  UNL1       -0.3211
     32 H         137.5712  143.6254  162.0657 H       1  UNL1        0.1189
     33 H         137.6644  145.2868  161.9925 H       1  UNL1        0.1189
     34 C         143.1801  138.6836  164.4799 C.3     1  UNL1        0.0268
     35 C         143.6751  140.0459  164.0932 C.3     1  UNL1        0.0019
     36 C         145.1379  140.3657  164.1834 C.3     1  UNL1        0.0001
     37 C         145.6330  141.7279  163.7968 C.3     1  UNL1        0.0000
     38 C         144.6653  142.7701  163.3200 C.3     1  UNL1        0.0000
     39 C         143.2026  142.4502  163.2299 C.3     1  UNL1        0.0000
     40 C         142.7075  141.0881  163.6165 C.3     1  UNL1        0.0001
@<TRIPOS>UNITY_ATOM_ATTR
25 1
charge -1
@<TRIPOS>BOND
     1     6     7    1
     2     7     8    1
     3     7     9    1
     4     9    10    1
     5    10    11    1
     6    11    12    1
     7    12    13    1
     8    12    14    1
     9    14     2    1
    10     2     3   am
    11     3     4    2
    12     3     1    1
    13     1    34    1
    14    34    35    1
    15    35    36    1
    16    36    37    1
    17    37    38    1
    18    38    39    1
    19    39    40    1
    20     1    16    1
    21    16    18    1
    22    18    19    2
    23    18    20    2
    24    18    21    1
    25    21    23    1
    26    23    27    1
    27    27    28    1
    28    28    29    1
    29    29    30    1
    30    30    31    1
    31    23    24    1
    32    24    25   ar
    33    24    26   ar
    34    14    15    1
    35    12     7    1
    36    40    35    1
    37    15     9    1
    38     2     5    1
    39    16    17    1
    40    21    22    1
    41    31    32    1
    42    31    33    1
@<TRIPOS>MOLECULE
*****
 40 42 0 0 0
SMALL
GASTEIGER

@<TRIPOS>ATOM
      1 C         139.0249  139.3539  164.7083 C.3     1  UNL1        0.1524
      2 N         140.9870  140.4242  166.0328 N.am    1  UNL1       -0.3048
      3 C         139.6644  139.7167  166.0157 C.2     1  UNL1        0.2383
      4 O         138.9815  139.3720  167.3059 O.2     1  UNL1       -0.2736
      5 H         141.4352  140.6505  165.1859 H       1  UNL1        0.1494
      6 C         142.4523  139.3797  167.5839 C.3     1  UNL1        0.0001
      7 C         142.1305  140.7443  168.1171 C.3     1  UNL1        0.0015
      8 C         141.5905  140.1982  166.8287 C.3     1  UNL1        0.0001
      9 C         142.9459  140.6750  169.3742 C.3     1  UNL1        0.0017
     10 C         142.7798  141.9734  170.1067 C.3     1  UNL1        0.0001
     11 C         141.8617  142.8452  169.3022 C.3     1  UNL1        0.0016
     12 C         141.4605  142.0855  168.0726 C.3     1  UNL1        0.0165
     13 C         140.5491  142.5803  166.9888 C.3     1  UNL1        0.0016
     14 C         141.6266  140.7871  167.3401 C.3     1  UNL1        0.0715
     15 C         142.5447  139.9153  168.1446 C.3     1  UNL1        0.0196
     16 N         139.2902  138.0132  164.0900 N.3     1  UNL1       -0.1620
     17 H         138.5545  137.8557  163.4013 H       1  UNL1        0.1504
     18 S         140.5948  137.7516  163.3974 S.O2    1  UNL1        0.0964
     19 O         141.0132  136.8543  164.5242 O.2     1  UNL1       -0.1413
     20 O         140.5468  138.1807  162.7273 O.2     1  UNL1       -0.1413
     21 N         141.8994  137.4901  162.7048 N.3     1  UNL1       -0.1655
     22 H         141.6882  137.3718  161.7140 H       1  UNL1        0.1502
     23 C         143.0102  138.4941  162.7939 C.3     1  UNL1        0.1126
     24 C         143.4966  139.1865  161.5552 C.2     1  UNL1        0.0662
     25 O         143.0940  140.6053  161.2819 O.co2   1  UNL1       -0.5478
     26 O         144.3855  138.4599  160.5899 O.co2   1  UNL1       -0.5478
     27 C         143.6348  138.8059  164.1216 C.3     1  UNL1        0.0232
     28 C         144.9417  139.5396  164.1819 C.3     1  UNL1        0.0032
     29 C         144.9578  141.0364  164.2770 C.3     1  UNL1        0.0169
     30 C         145.8054  141.8387  163.3348 C.3     1  UNL1        0.0651
     31 N         145.1601  142.6448  162.2468 N.3     1  UNL1       -0.3211
     32 H         144.7105  142.0174  161.5799 H       1  UNL1        0.1189
     33 H         145.8698  143.1986  161.7673 H       1  UNL1        0.1189
     34 C         138.1199  140.3317  164.0192 C.3     1  UNL1        0.0268
     35 C         138.5106  141.7769  163.9243 C.3     1  UNL1        0.0019
     36 C         139.7442  142.1722  163.1680 C.3     1  UNL1        0.0001
     37 C         140.1350  143.6172  163.0730 C.3     1  UNL1        0.0000
     38 C         139.2921  144.6671  163.7343 C.3     1  UNL1        0.0000
     39 C         138.0584  144.2718  164.4906 C.3     1  UNL1        0.0000
     40 C         137.6677  142.8267  164.5855 C.3     1  UNL1        0.0001
@<TRIPOS>UNITY_ATOM_ATTR
25 1
charge -1
@<TRIPOS>BOND
     1     6     7    1
     2     7     8    1
     3     7     9    1
     4     9    10    1
     5    10    11    1
     6    11    12    1
     7    12    13    1
     8    12    14    1
     9    14     2    1
    10     2     3   am
    11     3     4    2
    12     3     1    1
    13     1    34    1
    14    34    35    1
    15    35    36    1
    16    36    37    1
    17    37    38    1
    18    38    39    1
    19    39    40    1
    20     1    16    1
    21    16    18    1
    22    18    19    2
    23    18    20    2
    24    18    21    1
    25    21    23    1
    26    23    27    1
    27    27    28    1
    28    28    29    1
    29    29    30    1
    30    30    31    1
    31    23    24    1
    32    24    25   ar
    33    24    26   ar
    34    14    15    1
    35    12     7    1
    36    40    35    1
    37    15     9    1
    38     2     5    1
    39    16    17    1
    40    21    22    1
    41    31    32    1
    42    31    33    1
@<TRIPOS>MOLECULE
*****
 40 42 0 0 0
SMALL
GASTEIGER

@<TRIPOS>ATOM
      1 C         141.8689  138.8091  165.2331 C.3     1  UNL1        0.1524
      2 N         140.4240  140.4063  166.6860 N.am    1  UNL1       -0.3048
      3 C         141.6107  139.5008  166.5387 C.2     1  UNL1        0.2383
      4 O         142.5393  139.2869  167.6972 O.2     1  UNL1       -0.2736
      5 H         139.8146  140.5467  165.9256 H       1  UNL1        0.1494
      6 C         139.3631  139.8675  168.7423 C.3     1  UNL1        0.0001
      7 C         139.8801  141.2708  168.8565 C.3     1  UNL1        0.0015
      8 C         140.0382  140.4155  167.6346 C.3     1  UNL1        0.0001
      9 C         139.4179  141.5505  170.2558 C.3     1  UNL1        0.0017
     10 C         139.8335  142.9474  170.6109 C.3     1  UNL1        0.0001
     11 C         140.5525  143.5311  169.4310 C.3     1  UNL1        0.0016
     12 C         140.5814  142.4949  168.3467 C.3     1  UNL1        0.0165
     13 C         141.2024  142.6548  166.9907 C.3     1  UNL1        0.0016
     14 C         140.1658  141.0980  167.9917 C.3     1  UNL1        0.0715
     15 C         139.4468  140.5143  169.1716 C.3     1  UNL1        0.0196
     16 N         140.7363  138.1682  164.4870 N.3     1  UNL1       -0.1620
     17 H         140.0112  137.9608  165.1738 H       1  UNL1        0.1504
     18 S         140.0694  138.9017  163.3613 S.O2    1  UNL1        0.0964
     19 O         139.0275  139.4128  164.3116 O.2     1  UNL1       -0.1413
     20 O         140.5209  138.7324  162.7265 O.2     1  UNL1       -0.1413
     21 N         139.4025  139.6352  162.2356 N.3     1  UNL1       -0.1655
     22 H         138.4145  139.3834  162.2645 H       1  UNL1        0.1502
     23 C         139.4661  141.1326  162.1742 C.3     1  UNL1        0.1126
     24 C         138.2037  141.9322  162.0447 C.2     1  UNL1        0.0662
     25 O         136.9765  141.5250  162.8051 O.co2   1  UNL1       -0.5478
     26 O         138.1684  143.1392  161.1548 O.co2   1  UNL1       -0.5478
     27 C         140.7923  141.8303  162.2424 C.3     1  UNL1        0.0232
     28 C         141.1156  142.7140  163.4106 C.3     1  UNL1        0.0032
     29 C         141.6961  144.0779  163.1812 C.3     1  UNL1        0.0169
     30 C         141.1155  144.9725  162.1265 C.3     1  UNL1        0.0651
     31 N         140.4318  146.2487  162.5187 N.3     1  UNL1       -0.3211
     32 H         139.5849  146.0329  163.0447 H       1  UNL1        0.1189
     33 H         140.1863  146.7746  161.6799 H       1  UNL1        0.1189
     34 C         143.2596  138.7584  164.6733 C.3     1  UNL1        0.0268
     35 C         143.8329  139.9582  163.9790 C.3     1  UNL1        0.0019
     36 C         143.9506  139.9742  162.4837 C.3     1  UNL1        0.0001
     37 C         144.5239  141.1739  161.7893 C.3     1  UNL1        0.0000
     38 C         144.9793  142.3575  162.5903 C.3     1  UNL1        0.0000
     39 C         144.8616  142.3415  164.0856 C.3     1  UNL1        0.0000
     40 C         144.2883  141.1418  164.7799 C.3     1  UNL1        0.0001
@<TRIPOS>UNITY_ATOM_ATTR
25 1
charge -1
@<TRIPOS>BOND
     1     6     7    1
     2     7     8    1
     3     7     9    1
     4     9    10    1
     5    10    11    1
     6    11    12    1
     7    12    13    1
     8    12    14    1
     9    14     2    1
    10     2     3   am
    11     3     4    2
    12     3     1    1
    13     1    34    1
    14    34    35    1
    15    35    36    1
    16    36    37    1
    17    37    38    1
    18    38    39    1
    19    39    40    1
    20     1    16    1
    21    16    18    1
    22    18    19    2
    23    18    20    2
    24    18    21    1
    25    21    23    1
    26    23    27    1
    27    27    28    1
    28    28    29    1
    29    29    30    1
    30    30    31    1
    31    23    24    1
    32    24    25   ar
    33    24    26   ar
    34    14    15    1
    35    12     7    1
    36    40    35    1
    37    15     9    1
    38     2     5    1
    39    16    17    1
    40    21    22    1
    41    31    32    1
    42    31    33    1
@<TRIPOS>MOLECULE
*****
 40 42 0 0 0
SMALL
GASTEIGER

@<TRIPOS>ATOM
      1 C         142.7158  140.0486  166.2708 C.3     1  UNL1        0.1524
      2 N         140.7519  141.3947  165.2312 N.am    1  UNL1       -0.3048
      3 C         142.1975  141.2963  165.6193 C.2     1  UNL1        0.2383
      4 O         143.1248  142.4455  165.3558 O.2     1  UNL1       -0.2736
      5 H         140.1433  140.6404  165.4042 H       1  UNL1        0.1494
      6 C         139.8315  143.4624  165.9537 C.3     1  UNL1        0.0001
      7 C         139.8720  143.4868  164.4545 C.3     1  UNL1        0.0015
      8 C         140.3438  142.3323  165.2877 C.3     1  UNL1        0.0001
      9 C         139.2869  144.8531  164.2520 C.3     1  UNL1        0.0017
     10 C         139.2232  145.1161  162.7766 C.3     1  UNL1        0.0001
     11 C         139.7689  143.9123  162.0672 C.3     1  UNL1        0.0016
     12 C         140.1698  142.9054  163.1042 C.3     1  UNL1        0.0165
     13 C         140.7643  141.5542  162.8377 C.3     1  UNL1        0.0016
     14 C         140.2335  142.6424  164.5796 C.3     1  UNL1        0.0715
     15 C         139.6879  143.8462  165.2890 C.3     1  UNL1        0.0196
     16 N         143.1807  138.8991  165.4266 N.3     1  UNL1       -0.1620
     17 H         143.6722  138.2570  166.0484 H       1  UNL1        0.1504
     18 S         142.1848  138.0813  164.6589 S.O2    1  UNL1        0.0964
     19 O         142.7037  138.6556  163.3740 O.2     1  UNL1       -0.1413
     20 O         141.7892  137.6801  165.2227 O.2     1  UNL1       -0.1413
     21 N         141.1889  137.2636  163.8912 N.3     1  UNL1       -0.1655
     22 H         141.0390  136.4064  164.4233 H       1  UNL1        0.1502
     23 C         139.8325  137.8265  163.5859 C.3     1  UNL1        0.1126
     24 C         138.8837  138.1448  164.7033 C.2     1  UNL1        0.0662
     25 O         138.3890  139.5484  164.8903 O.co2   1  UNL1       -0.5478
     26 O         138.4296  137.0594  165.6337 O.co2   1  UNL1       -0.5478
     27 C         139.4247  138.0712  162.1632 C.3     1  UNL1        0.0232
     28 C         137.9708  138.1409  161.8011 C.3     1  UNL1        0.0032
     29 C         137.4254  139.3603  161.1189 C.3     1  UNL1        0.0169
     30 C         137.6608  140.7188  161.7098 C.3     1  UNL1        0.0651
     31 N         136.8397  141.1815  162.8768 N.3     1  UNL1       -0.3211
     32 H         135.8673  141.2872  162.5877 H       1  UNL1        0.1189
     33 H         137.1952  142.0781  163.2084 H       1  UNL1        0.1189
     34 C         142.7692  139.9503  167.7667 C.3     1  UNL1        0.0268
     35 C         141.9354  140.8700  168.6089 C.3     1  UNL1        0.0019
     36 C         142.4953  142.1856  169.0623 C.3     1  UNL1        0.0001
     37 C         141.6617  143.1053  169.9045 C.3     1  UNL1        0.0000
     38 C         140.2682  142.7092  170.2934 C.3     1  UNL1        0.0000
     39 C         139.7083  141.3935  169.8400 C.3     1  UNL1        0.0000
     40 C         140.5419  140.4739  168.9978 C.3     1  UNL1        0.0001
@<TRIPOS>UNITY_ATOM_ATTR
25 1
charge -1
@<TRIPOS>BOND
     1     6     7    1
     2     7     8    1
     3     7     9    1
     4     9    10    1
     5    10    11    1
     6    11    12    1
     7    12    13    1
     8    12    14    1
     9    14     2    1
    10     2     3   am
    11     3     4    2
    12     3     1    1
    13     1    34    1
    14    34    35    1
    15    35    36    1
    16    36    37    1
    17    37    38    1
    18    38    39    1
    19    39    40    1
    20     1    16    1
    21    16    18    1
    22    18    19    2
    23    18    20    2
    24    18    21    1
    25    21    23    1
    26    23    27    1
    27    27    28    1
    28    28    29    1
    29    29    30    1
    30    30    31    1
    31    23    24    1
    32    24    25   ar
    33    24    26   ar
    34    14    15    1
    35    12     7    1
    36    40    35    1
    37    15     9    1
    38     2     5    1
    39    16    17    1
    40    21    22    1
    41    31    32    1
    42    31    33    1
@<TRIPOS>MOLECULE
*****
 40 42 0 0 0
SMALL
GASTEIGER

@<TRIPOS>ATOM
      1 C         142.1575  139.4303  166.2556 C.3     1  UNL1        0.1524
      2 N         141.2691  141.4843  164.9361 N.am    1  UNL1       -0.3048
      3 C         141.0173  140.1805  165.6338 C.2     1  UNL1        0.2383
      4 O         139.6252  139.6271  165.7095 O.2     1  UNL1       -0.2736
      5 H         142.1828  141.8476  164.8864 H       1  UNL1        0.1494
      6 C         140.1196  141.4608  162.8571 C.3     1  UNL1        0.0001
      7 C         139.4869  142.5205  163.7096 C.3     1  UNL1        0.0015
      8 C         140.6365  141.6643  164.1511 C.3     1  UNL1        0.0001
      9 C         138.4481  142.9829  162.7313 C.3     1  UNL1        0.0017
     10 C         137.6583  144.0817  163.3785 C.3     1  UNL1        0.0001
     11 C         138.2090  144.2984  164.7568 C.3     1  UNL1        0.0016
     12 C         139.3391  143.3335  164.9614 C.3     1  UNL1        0.0165
     13 C         140.1747  143.2043  166.2004 C.3     1  UNL1        0.0016
     14 C         140.1289  142.2347  164.3142 C.3     1  UNL1        0.0715
     15 C         139.5782  142.0180  162.9359 C.3     1  UNL1        0.0196
     16 N         143.0038  138.5203  165.4154 N.3     1  UNL1       -0.1620
     17 H         142.3638  137.9565  164.8559 H       1  UNL1        0.1504
     18 S         144.0135  139.0975  164.4682 S.O2    1  UNL1        0.0964
     19 O         142.9818  139.1162  163.3796 O.2     1  UNL1       -0.1413
     20 O         144.6754  139.1621  164.9078 O.2     1  UNL1       -0.1413
     21 N         145.0233  139.6747  163.5211 N.3     1  UNL1       -0.1655
     22 H         144.9387  139.1548  162.6476 H       1  UNL1        0.1502
     23 C         144.9709  141.1309  163.1649 C.3     1  UNL1        0.1126
     24 C         144.6332  141.5488  161.7645 C.2     1  UNL1        0.0662
     25 O         144.1348  140.5342  160.7785 O.co2   1  UNL1       -0.5478
     26 O         144.7939  142.9814  161.3499 O.co2   1  UNL1       -0.5478
     27 C         145.2562  142.1692  164.2093 C.3     1  UNL1        0.0232
     28 C         144.1278  142.9377  164.8308 C.3     1  UNL1        0.0032
     29 C         143.9694  144.4013  164.5435 C.3     1  UNL1        0.0169
     30 C         142.7565  144.8950  163.8119 C.3     1  UNL1        0.0651
     31 N         142.4191  144.3407  162.4596 N.3     1  UNL1       -0.3211
     32 H         143.1421  144.6091  161.7920 H       1  UNL1        0.1189
     33 H         141.5197  144.7126  162.1544 H       1  UNL1        0.1189
     34 C         142.4517  139.5900  167.7178 C.3     1  UNL1        0.0268
     35 C         141.7407  140.6430  168.5153 C.3     1  UNL1        0.0019
     36 C         140.3622  140.3795  169.0449 C.3     1  UNL1        0.0001
     37 C         139.6512  141.4325  169.8423 C.3     1  UNL1        0.0000
     38 C         140.3187  142.7488  170.1101 C.3     1  UNL1        0.0000
     39 C         141.6972  143.0122  169.5805 C.3     1  UNL1        0.0000
     40 C         142.4082  141.9593  168.7831 C.3     1  UNL1        0.0001
@<TRIPOS>UNITY_ATOM_ATTR
25 1
charge -1
@<TRIPOS>BOND
     1     6     7    1
     2     7     8    1
     3     7     9    1
     4     9    10    1
     5    10    11    1
     6    11    12    1
     7    12    13    1
     8    12    14    1
     9    14     2    1
    10     2     3   am
    11     3     4    2
    12     3     1    1
    13     1    34    1
    14    34    35    1
    15    35    36    1
    16    36    37    1
    17    37    38    1
    18    38    39    1
    19    39    40    1
    20     1    16    1
    21    16    18    1
    22    18    19    2
    23    18    20    2
    24    18    21    1
    25    21    23    1
    26    23    27    1
    27    27    28    1
    28    28    29    1
    29    29    30    1
    30    30    31    1
    31    23    24    1
    32    24    25   ar
    33    24    26   ar
    34    14    15    1
    35    12     7    1
    36    40    35    1
    37    15     9    1
    38     2     5    1
    39    16    17    1
    40    21    22    1
    41    31    32    1
    42    31    33    1
@<TRIPOS>MOLECULE
*****
 40 42 0 0 0
SMALL
GASTEIGER

@<TRIPOS>ATOM
      1 C         138.7091  139.4041  166.0032 C.3     1  UNL1        0.1524
      2 N         139.9934  141.5270  165.2329 N.am    1  UNL1       -0.3048
      3 C         138.7489  140.6896  165.2314 C.2     1  UNL1        0.2383
      4 O         137.5443  141.1378  164.4581 O.2     1  UNL1       -0.2736
      5 H         140.7841  141.2328  165.7404 H       1  UNL1        0.1494
      6 C         139.3545  143.7842  165.6088 C.3     1  UNL1        0.0001
      7 C         139.9368  143.7048  164.2288 C.3     1  UNL1        0.0015
      8 C         139.8098  142.5314  165.1544 C.3     1  UNL1        0.0001
      9 C         139.7806  145.1485  163.8529 C.3     1  UNL1        0.0017
     10 C         140.3124  145.3255  162.4615 C.3     1  UNL1        0.0001
     11 C         140.7973  143.9911  161.9775 C.3     1  UNL1        0.0016
     12 C         140.5652  142.9895  163.0697 C.3     1  UNL1        0.0165
     13 C         140.9023  141.5290  163.0129 C.3     1  UNL1        0.0016
     14 C         140.0333  142.8126  164.4611 C.3     1  UNL1        0.0715
     15 C         139.5484  144.1470  164.9451 C.3     1  UNL1        0.0196
     16 N         138.4942  139.4267  167.4876 N.3     1  UNL1       -0.1620
     17 H         138.2594  138.4739  167.7657 H       1  UNL1        0.1504
     18 S         139.5950  139.8846  168.3979 S.O2    1  UNL1        0.0964
     19 O         138.6282  139.9308  169.5438 O.2     1  UNL1       -0.1413
     20 O         140.2351  139.9197  167.9240 O.2     1  UNL1       -0.1413
     21 N         140.6958  140.3425  169.3081 N.3     1  UNL1       -0.1655
     22 H         141.5585  139.9234  168.9609 H       1  UNL1        0.1502
     23 C         140.9653  141.8079  169.4808 C.3     1  UNL1        0.1126
     24 C         140.6278  142.4851  170.7761 C.2     1  UNL1        0.0662
     25 O         141.3526  142.1039  172.0328 O.co2   1  UNL1       -0.5478
     26 O         139.5655  143.5433  170.8146 O.co2   1  UNL1       -0.5478
     27 C         141.5724  142.5963  168.3583 C.3     1  UNL1        0.0232
     28 C         142.9311  142.2338  167.8362 C.3     1  UNL1        0.0032
     29 C         143.0677  141.5677  166.4993 C.3     1  UNL1        0.0169
     30 C         143.8583  142.2287  165.4093 C.3     1  UNL1        0.0651
     31 N         143.5113  143.6201  164.9693 N.3     1  UNL1       -0.3211
     32 H         142.5887  143.6190  164.5343 H       1  UNL1        0.1189
     33 H         144.2044  143.9464  164.2958 H       1  UNL1        0.1189
     34 C         138.8841  138.0958  165.2906 C.3     1  UNL1        0.0268
     35 C         139.7342  138.0216  164.0569 C.3     1  UNL1        0.0019
     36 C         141.2243  137.8998  164.1791 C.3     1  UNL1        0.0001
     37 C         142.0744  137.8255  162.9455 C.3     1  UNL1        0.0000
     38 C         141.4345  137.8731  161.5897 C.3     1  UNL1        0.0000
     39 C         139.9444  137.9949  161.4675 C.3     1  UNL1        0.0000
     40 C         139.0943  138.0692  162.7011 C.3     1  UNL1        0.0001
@<TRIPOS>UNITY_ATOM_ATTR
25 1
charge -1
@<TRIPOS>BOND
     1     6     7    1
     2     7     8    1
     3     7     9    1
     4     9    10    1
     5    10    11    1
     6    11    12    1
     7    12    13    1
     8    12    14    1
     9    14     2    1
    10     2     3   am
    11     3     4    2
    12     3     1    1
    13     1    34    1
    14    34    35    1
    15    35    36    1
    16    36    37    1
    17    37    38    1
    18    38    39    1
    19    39    40    1
    20     1    16    1
    21    16    18    1
    22    18    19    2
    23    18    20    2
    24    18    21    1
    25    21    23    1
    26    23    27    1
    27    27    28    1
    28    28    29    1
    29    29    30    1
    30    30    31    1
    31    23    24    1
    32    24    25   ar
    33    24    26   ar
    34    14    15    1
    35    12     7    1
    36    40    35    1
    37    15     9    1
    38     2     5    1
    39    16    17    1
    40    21    22    1
    41    31    32    1
    42    31    33    1
@<TRIPOS>MOLECULE
*****
 40 42 0 0 0
SMALL
GASTEIGER

@<TRIPOS>ATOM
      1 C         139.4282  139.5071  164.8197 C.3     1  UNL1        0.1524
      2 N         141.2131  140.6350  166.3334 N.am    1  UNL1       -0.3048
      3 C         139.9248  139.8813  166.1846 C.2     1  UNL1        0.2383
      4 O         139.1331  139.5019  167.4009 O.2     1  UNL1       -0.2736
      5 H         141.7327  140.8840  165.5352 H       1  UNL1        0.1494
      6 C         142.5667  139.6343  168.0099 C.3     1  UNL1        0.0001
      7 C         142.1389  140.9785  168.5196 C.3     1  UNL1        0.0015
      8 C         141.7471  140.4251  167.1817 C.3     1  UNL1        0.0001
      9 C         142.8331  140.9288  169.8483 C.3     1  UNL1        0.0017
     10 C         142.5440  142.2111  170.5708 C.3     1  UNL1        0.0001
     11 C         141.6710  143.0535  169.6886 C.3     1  UNL1        0.0016
     12 C         141.4206  142.2917  168.4209 C.3     1  UNL1        0.0165
     13 C         140.5966  142.7607  167.2585 C.3     1  UNL1        0.0016
     14 C         141.7098  141.0093  167.6984 C.3     1  UNL1        0.0715
     15 C         142.5828  140.1670  168.5806 C.3     1  UNL1        0.0196
     16 N         140.2293  138.5751  163.9595 N.3     1  UNL1       -0.1620
     17 H         139.5767  138.1456  163.3037 H       1  UNL1        0.1504
     18 S         141.3751  139.1022  163.1476 S.O2    1  UNL1        0.0964
     19 O         140.4974  139.1374  161.9317 O.2     1  UNL1       -0.1413
     20 O         141.9750  139.1519  163.6701 O.2     1  UNL1       -0.1413
     21 N         142.5209  139.6294  162.3357 N.3     1  UNL1       -0.1655
     22 H         142.2460  139.5563  161.3561 H       1  UNL1        0.1502
     23 C         143.0057  141.0332  162.5457 C.3     1  UNL1        0.1126
     24 C         144.4429  141.2864  162.8929 C.2     1  UNL1        0.0662
     25 O         145.1060  142.5601  162.4594 O.co2   1  UNL1       -0.5478
     26 O         145.2169  140.2659  163.6735 O.co2   1  UNL1       -0.5478
     27 C         142.0533  142.1840  162.4086 C.3     1  UNL1        0.0232
     28 C         141.5332  142.8771  163.6329 C.3     1  UNL1        0.0032
     29 C         141.6074  144.3715  163.7374 C.3     1  UNL1        0.0169
     30 C         142.9395  145.0493  163.8644 C.3     1  UNL1        0.0651
     31 N         143.8029  145.2392  162.6526 N.3     1  UNL1       -0.3211
     32 H         144.1066  144.3294  162.3055 H       1  UNL1        0.1189
     33 H         144.6192  145.7982  162.9009 H       1  UNL1        0.1189
     34 C         138.1305  140.0648  164.3147 C.3     1  UNL1        0.0268
     35 C         138.0679  141.4736  163.8034 C.3     1  UNL1        0.0019
     36 C         138.1362  141.7400  162.3289 C.3     1  UNL1        0.0001
     37 C         138.0737  143.1488  161.8175 C.3     1  UNL1        0.0000
     38 C         137.9429  144.2912  162.7808 C.3     1  UNL1        0.0000
     39 C         137.8746  144.0248  164.2554 C.3     1  UNL1        0.0000
     40 C         137.9372  142.6160  164.7667 C.3     1  UNL1        0.0001
@<TRIPOS>UNITY_ATOM_ATTR
25 1
charge -1
@<TRIPOS>BOND
     1     6     7    1
     2     7     8    1
     3     7     9    1
     4     9    10    1
     5    10    11    1
     6    11    12    1
     7    12    13    1
     8    12    14    1
     9    14     2    1
    10     2     3   am
    11     3     4    2
    12     3     1    1
    13     1    34    1
    14    34    35    1
    15    35    36    1
    16    36    37    1
    17    37    38    1
    18    38    39    1
    19    39    40    1
    20     1    16    1
    21    16    18    1
    22    18    19    2
    23    18    20    2
    24    18    21    1
    25    21    23    1
    26    23    27    1
    27    27    28    1
    28    28    29    1
    29    29    30    1
    30    30    31    1
    31    23    24    1
    32    24    25   ar
    33    24    26   ar
    34    14    15    1
    35    12     7    1
    36    40    35    1
    37    15     9    1
    38     2     5    1
    39    16    17    1
    40    21    22    1
    41    31    32    1
    42    31    33    1
@<TRIPOS>MOLECULE
*****
 40 42 0 0 0
SMALL
GASTEIGER

@<TRIPOS>ATOM
      1 C         143.1622  141.3066  164.1998 C.3     1  UNL1        0.1524
      2 N         142.2049  142.2006  166.4434 N.am    1  UNL1       -0.3048
      3 C         142.9225  141.1341  165.6703 C.2     1  UNL1        0.2383
      4 O         143.4003  139.8951  166.3679 O.2     1  UNL1       -0.2736
      5 H         141.8913  143.0138  165.9856 H       1  UNL1        0.1494
      6 C         143.4683  142.4608  168.4385 C.3     1  UNL1        0.0001
      7 C         142.0938  142.0071  168.8318 C.3     1  UNL1        0.0015
      8 C         142.5279  142.2365  167.4146 C.3     1  UNL1        0.0001
      9 C         142.3021  141.9731  170.3169 C.3     1  UNL1        0.0017
     10 C         141.0185  141.5313  170.9551 C.3     1  UNL1        0.0001
     11 C         140.0169  141.2923  169.8644 C.3     1  UNL1        0.0016
     12 C         140.6814  141.5864  168.5522 C.3     1  UNL1        0.0165
     13 C         140.0453  141.4786  167.1980 C.3     1  UNL1        0.0016
     14 C         141.9650  142.0281  167.9140 C.3     1  UNL1        0.0715
     15 C         142.9667  142.2671  169.0047 C.3     1  UNL1        0.0196
     16 N         144.0184  142.4353  163.7067 N.3     1  UNL1       -0.1620
     17 H         144.5310  142.0844  162.8977 H       1  UNL1        0.1504
     18 S         143.3857  143.7300  163.2902 S.O2    1  UNL1        0.0964
     19 O         143.7109  144.3201  164.6303 O.2     1  UNL1       -0.1413
     20 O         143.1367  143.5922  162.5456 O.2     1  UNL1       -0.1413
     21 N         142.7531  145.0247  162.8736 N.3     1  UNL1       -0.1655
     22 H         143.1297  145.2540  161.9538 H       1  UNL1        0.1502
     23 C         141.2605  145.1306  162.7691 C.3     1  UNL1        0.1126
     24 C         140.6261  145.5297  161.4698 C.2     1  UNL1        0.0662
     25 O         141.3919  145.3913  160.1875 O.co2   1  UNL1       -0.5478
     26 O         139.2258  146.0671  161.4527 O.co2   1  UNL1       -0.5478
     27 C         140.4022  144.8374  163.9640 C.3     1  UNL1        0.0232
     28 C         139.7484  143.4949  164.1065 C.3     1  UNL1        0.0032
     29 C         138.2603  143.3670  163.9685 C.3     1  UNL1        0.0169
     30 C         137.6770  142.5924  162.8241 C.3     1  UNL1        0.0651
     31 N         136.7683  141.4293  163.0916 N.3     1  UNL1       -0.3211
     32 H         137.2941  140.6856  163.5507 H       1  UNL1        0.1189
     33 H         136.3899  141.0837  162.2097 H       1  UNL1        0.1189
     34 C         142.5458  140.3504  163.2221 C.3     1  UNL1        0.0268
     35 C         141.4865  139.3910  163.6777 C.3     1  UNL1        0.0019
     36 C         140.0673  139.8545  163.8234 C.3     1  UNL1        0.0001
     37 C         139.0080  138.8952  164.2790 C.3     1  UNL1        0.0000
     38 C         139.3678  137.4723  164.5887 C.3     1  UNL1        0.0000
     39 C         140.7870  137.0088  164.4430 C.3     1  UNL1        0.0000
     40 C         141.8463  137.9681  163.9875 C.3     1  UNL1        0.0001
@<TRIPOS>UNITY_ATOM_ATTR
25 1
charge -1
@<TRIPOS>BOND
     1     6     7    1
     2     7     8    1
     3     7     9    1
     4     9    10    1
     5    10    11    1
     6    11    12    1
     7    12    13    1
     8    12    14    1
     9    14     2    1
    10     2     3   am
    11     3     4    2
    12     3     1    1
    13     1    34    1
    14    34    35    1
    15    35    36    1
    16    36    37    1
    17    37    38    1
    18    38    39    1
    19    39    40    1
    20     1    16    1
    21    16    18    1
    22    18    19    2
    23    18    20    2
    24    18    21    1
    25    21    23    1
    26    23    27    1
    27    27    28    1
    28    28    29    1
    29    29    30    1
    30    30    31    1
    31    23    24    1
    32    24    25   ar
    33    24    26   ar
    34    14    15    1
    35    12     7    1
    36    40    35    1
    37    15     9    1
    38     2     5    1
    39    16    17    1
    40    21    22    1
    41    31    32    1
    42    31    33    1
@<TRIPOS>MOLECULE
*****
 40 42 0 0 0
SMALL
GASTEIGER

@<TRIPOS>ATOM
      1 C         142.9994  138.9713  165.7117 C.3     1  UNL1        0.1524
      2 N         141.2774  140.5542  166.8425 N.am    1  UNL1       -0.3048
      3 C         142.4190  139.5871  166.9502 C.2     1  UNL1        0.2383
      4 O         142.9801  139.2360  168.2962 O.2     1  UNL1       -0.2736
      5 H         140.9091  140.7846  165.9591 H       1  UNL1        0.1494
      6 C         139.6269  139.9691  168.4481 C.3     1  UNL1        0.0001
      7 C         140.1833  141.3055  168.8408 C.3     1  UNL1        0.0015
      8 C         140.6325  140.5304  167.6378 C.3     1  UNL1        0.0001
      9 C         139.3524  141.5246  170.0702 C.3     1  UNL1        0.0017
     10 C         139.7412  142.8466  170.6629 C.3     1  UNL1        0.0001
     11 C         140.8124  143.4445  169.7998 C.3     1  UNL1        0.0016
     12 C         141.0856  142.4920  168.6736 C.3     1  UNL1        0.0165
     13 C         142.0856  142.6912  167.5735 C.3     1  UNL1        0.0016
     14 C         140.6969  141.1701  168.0809 C.3     1  UNL1        0.0715
     15 C         139.6257  140.5722  168.9441 C.3     1  UNL1        0.0196
     16 N         144.1839  139.6043  165.0436 N.3     1  UNL1       -0.1620
     17 H         144.7152  138.8496  164.6093 H       1  UNL1        0.1504
     18 S         143.9793  140.6519  163.9897 S.O2    1  UNL1        0.0964
     19 O         144.2717  141.7233  164.9979 O.2     1  UNL1       -0.1413
     20 O         143.8022  140.2342  163.3343 O.2     1  UNL1       -0.1413
     21 N         143.7747  141.6995  162.9358 N.3     1  UNL1       -0.1655
     22 H         144.3272  141.4152  162.1269 H       1  UNL1        0.1502
     23 C         142.3933  141.9981  162.4334 C.3     1  UNL1        0.1126
     24 C         142.1136  141.9920  160.9597 C.2     1  UNL1        0.0662
     25 O         142.9498  141.1513  160.0410 O.co2   1  UNL1       -0.5478
     26 O         140.9975  142.8264  160.4047 O.co2   1  UNL1       -0.5478
     27 C         141.2915  142.3030  163.4047 C.3     1  UNL1        0.0232
     28 C         140.0774  141.4240  163.4616 C.3     1  UNL1        0.0032
     29 C         138.9816  141.7212  164.4418 C.3     1  UNL1        0.0169
     30 C         137.6307  142.1487  163.9497 C.3     1  UNL1        0.0651
     31 N         136.8379  141.2438  163.0538 N.3     1  UNL1       -0.3211
     32 H         137.3203  141.1416  162.1609 H       1  UNL1        0.1189
     33 H         135.9136  141.6455  162.8968 H       1  UNL1        0.1189
     34 C         142.3954  137.7223  165.1414 C.3     1  UNL1        0.0268
     35 C         141.1868  137.8098  164.2572 C.3     1  UNL1        0.0019
     36 C         141.3476  137.8173  162.7658 C.3     1  UNL1        0.0001
     37 C         140.1391  137.9048  161.8816 C.3     1  UNL1        0.0000
     38 C         138.7698  137.9848  162.4888 C.3     1  UNL1        0.0000
     39 C         138.6090  137.9773  163.9801 C.3     1  UNL1        0.0000
     40 C         139.8175  137.8898  164.8643 C.3     1  UNL1        0.0001
@<TRIPOS>UNITY_ATOM_ATTR
25 1
charge -1
@<TRIPOS>BOND
     1     6     7    1
     2     7     8    1
     3     7     9    1
     4     9    10    1
     5    10    11    1
     6    11    12    1
     7    12    13    1
     8    12    14    1
     9    14     2    1
    10     2     3   am
    11     3     4    2
    12     3     1    1
    13     1    34    1
    14    34    35    1
    15    35    36    1
    16    36    37    1
    17    37    38    1
    18    38    39    1
    19    39    40    1
    20     1    16    1
    21    16    18    1
    22    18    19    2
    23    18    20    2
    24    18    21    1
    25    21    23    1
    26    23    27    1
    27    27    28    1
    28    28    29    1
    29    29    30    1
    30    30    31    1
    31    23    24    1
    32    24    25   ar
    33    24    26   ar
    34    14    15    1
    35    12     7    1
    36    40    35    1
    37    15     9    1
    38     2     5    1
    39    16    17    1
    40    21    22    1
    41    31    32    1
    42    31    33    1
