@<TRIPOS>MOLECULE
*****
 34 37 0 0 0
SMALL
GASTEIGER

@<TRIPOS>ATOM
      1 C         142.9794  137.3714  160.1133 C.3     1  UNL1        0.1747
      2 C         142.7290  138.1834  161.3495 C.2     1  UNL1        0.2425
      3 O         143.2389  139.5913  161.4380 O.2     1  UNL1       -0.2733
      4 N         141.9687  137.5874  162.4969 N.am    1  UNL1       -0.3018
      5 H         141.6341  136.6634  162.4388 H       1  UNL1        0.1495
      6 C         141.7183  138.3994  163.7330 C.3     1  UNL1        0.1035
      7 C         142.2061  138.3510  165.1508 C.3     1  UNL1        0.0933
      8 N         141.3643  139.5477  165.4812 N.3     1  UNL1       -0.2711
      9 C         140.8766  139.5961  164.0636 C.3     1  UNL1        0.0933
     10 C         141.1139  140.3597  166.7174 C.3     1  UNL1        0.0576
     11 C         140.0092  139.9752  167.6563 C.3     1  UNL1        0.0163
     12 C         139.7588  140.7871  168.8924 C.3     1  UNL1        0.0069
     13 C         140.6131  141.9837  169.1896 C.3     1  UNL1        0.0366
     14 C         141.7179  142.3683  168.2506 C.3     1  UNL1        0.0069
     15 C         141.9683  141.5563  167.0145 C.3     1  UNL1        0.0163
     16 C         140.3627  142.7956  170.4257 C.2     1  UNL1        0.0500
     17 O         140.4015  142.1400  171.7743 O.co2   1  UNL1       -0.5492
     18 O         140.0734  144.2632  170.3134 O.co2   1  UNL1       -0.5492
     19 N         143.0310  138.0425  158.7728 N.pl3   1  UNL1       -0.3093
     20 H         143.6430  138.7992  158.6243 H       1  UNL1        0.1487
     21 C         139.1629  137.7697  155.1889 C.3     1  UNL1        0.1537
     22 N         140.3721  137.4353  156.0111 N.ar    1  UNL1       -0.2476
     23 N         140.9489  138.2744  157.1126 N.ar    1  UNL1       -0.1544
     24 C         142.1500  137.5607  157.6584 C.ar    1  UNL1        0.1500
     25 C         142.3155  136.2805  156.8944 C.ar    1  UNL1        0.0503
     26 C         143.3248  135.1754  156.9941 C.ar    1  UNL1        0.0082
     27 C         143.2352  133.9928  156.0758 C.ar    1  UNL1        0.0716
     28 C         142.1364  133.9153  155.0577 C.ar    1  UNL1        0.0054
     29 C         141.1271  135.0204  154.9579 C.ar    1  UNL1        0.0188
     30 C         141.2166  136.2030  155.8762 C.ar    1  UNL1        0.0807
     31 C         144.2446  132.8876  156.1755 C.3     1  UNL1        0.4186
     32 F         145.2539  131.7825  156.2753 F       1  UNL1       -0.1659
     33 F         144.6316  133.3646  157.5439 F       1  UNL1       -0.1659
     34 F         143.8575  132.4106  154.8071 F       1  UNL1       -0.1659
@<TRIPOS>UNITY_ATOM_ATTR
17 1
charge -1
@<TRIPOS>BOND
     1    21    22    1
     2    22    23   ar
     3    23    24   ar
     4    24    19    1
     5    19     1    1
     6     1     2    1
     7     2     3    2
     8     2     4   am
     9     4     6    1
    10     6     7    1
    11     7     8    1
    12    10     8    1
    13    10    11    1
    14    11    12    1
    15    12    13    1
    16    13    16    1
    17    16    17   ar
    18    16    18   ar
    19    13    14    1
    20    14    15    1
    21     8     9    1
    22    24    25   ar
    23    25    26   ar
    24    26    27   ar
    25    27    31    1
    26    31    32    1
    27    31    33    1
    28    31    34    1
    29    27    28   ar
    30    28    29   ar
    31    29    30   ar
    32    30    22   ar
    33     9     6    1
    34    30    25   ar
    35    15    10    1
    36    19    20    1
    37     4     5    1
@<TRIPOS>MOLECULE
*****
 34 37 0 0 0
SMALL
GASTEIGER

@<TRIPOS>ATOM
      1 C         139.9328  138.1146  158.2574 C.3     1  UNL1        0.1747
      2 C         139.9581  138.5061  159.7052 C.2     1  UNL1        0.2425
      3 O         140.9886  139.4762  160.2020 O.2     1  UNL1       -0.2733
      4 N         138.9528  137.9273  160.6561 N.am    1  UNL1       -0.3018
      5 H         138.2764  137.2905  160.3301 H       1  UNL1        0.1495
      6 C         138.9780  138.3187  162.1039 C.3     1  UNL1        0.1035
      7 C         139.3744  137.6373  163.3802 C.3     1  UNL1        0.0933
      8 N         139.0137  138.8722  164.1515 N.3     1  UNL1       -0.2711
      9 C         138.6174  139.5536  162.8753 C.3     1  UNL1        0.0933
     10 C         139.0390  139.2636  165.5993 C.3     1  UNL1        0.0576
     11 C         140.1054  140.1878  166.1079 C.3     1  UNL1        0.0163
     12 C         140.1306  140.5793  167.5556 C.3     1  UNL1        0.0069
     13 C         139.0894  140.0465  168.4949 C.3     1  UNL1        0.0366
     14 C         138.0230  139.1223  167.9864 C.3     1  UNL1        0.0069
     15 C         137.9978  138.7309  166.5385 C.3     1  UNL1        0.0163
     16 C         139.1148  140.4380  169.9427 C.2     1  UNL1        0.0500
     17 O         138.9469  139.3927  171.0053 O.co2   1  UNL1       -0.5492
     18 O         139.3079  141.8748  170.3279 O.co2   1  UNL1       -0.5492
     19 N         141.2150  137.8134  157.5394 N.pl3   1  UNL1       -0.3093
     20 H         142.0608  138.2043  157.8574 H       1  UNL1        0.1487
     21 C         140.0966  135.7828  152.7953 C.3     1  UNL1        0.1537
     22 N         140.6944  135.9834  154.1564 N.ar    1  UNL1       -0.2476
     23 N         140.3890  137.1122  155.0958 N.ar    1  UNL1       -0.1544
     24 C         141.2085  136.9168  156.3369 C.ar    1  UNL1        0.1500
     25 C         142.0203  135.6673  156.1645 C.ar    1  UNL1        0.0503
     26 C         143.0078  134.9803  157.0605 C.ar    1  UNL1        0.0082
     27 C         143.6776  133.7164  156.6088 C.ar    1  UNL1        0.0716
     28 C         143.3598  133.1396  155.2611 C.ar    1  UNL1        0.0054
     29 C         142.3723  133.8266  154.3651 C.ar    1  UNL1        0.0188
     30 C         141.7026  135.0904  154.8168 C.ar    1  UNL1        0.0807
     31 C         144.6651  133.0294  157.5048 C.3     1  UNL1        0.4186
     32 F         145.6526  132.3424  158.4008 F       1  UNL1       -0.1659
     33 F         144.1573  133.8223  158.6724 F       1  UNL1       -0.1659
     34 F         145.1729  132.2364  156.3372 F       1  UNL1       -0.1659
@<TRIPOS>UNITY_ATOM_ATTR
17 1
charge -1
@<TRIPOS>BOND
     1    21    22    1
     2    22    23   ar
     3    23    24   ar
     4    24    19    1
     5    19     1    1
     6     1     2    1
     7     2     3    2
     8     2     4   am
     9     4     6    1
    10     6     7    1
    11     7     8    1
    12    10     8    1
    13    10    11    1
    14    11    12    1
    15    12    13    1
    16    13    16    1
    17    16    17   ar
    18    16    18   ar
    19    13    14    1
    20    14    15    1
    21     8     9    1
    22    24    25   ar
    23    25    26   ar
    24    26    27   ar
    25    27    31    1
    26    31    32    1
    27    31    33    1
    28    31    34    1
    29    27    28   ar
    30    28    29   ar
    31    29    30   ar
    32    30    22   ar
    33     9     6    1
    34    30    25   ar
    35    15    10    1
    36    19    20    1
    37     4     5    1
@<TRIPOS>MOLECULE
*****
 34 37 0 0 0
SMALL
GASTEIGER

@<TRIPOS>ATOM
      1 C         142.1582  138.3791  158.8848 C.3     1  UNL1        0.1747
      2 C         141.8039  138.5419  160.3332 C.2     1  UNL1        0.2425
      3 O         140.4285  138.1847  160.8137 O.2     1  UNL1       -0.2733
      4 N         142.8250  139.0619  161.3011 N.am    1  UNL1       -0.3018
      5 H         143.7277  139.2963  160.9858 H       1  UNL1        0.1495
      6 C         142.4707  139.2248  162.7496 C.3     1  UNL1        0.1035
      7 C         142.2629  140.3943  163.6657 C.3     1  UNL1        0.0933
      8 N         141.9696  139.4552  164.7980 N.3     1  UNL1       -0.2711
      9 C         142.1774  138.2857  163.8818 C.3     1  UNL1        0.0933
     10 C         141.6153  139.6180  166.2464 C.3     1  UNL1        0.0576
     11 C         140.1918  139.8698  166.6466 C.3     1  UNL1        0.0163
     12 C         139.8375  140.0326  168.0949 C.3     1  UNL1        0.0069
     13 C         140.9067  139.9437  169.1433 C.3     1  UNL1        0.0366
     14 C         142.3303  139.6918  168.7431 C.3     1  UNL1        0.0069
     15 C         142.6846  139.5290  167.2947 C.3     1  UNL1        0.0163
     16 C         140.5523  140.1065  170.5916 C.2     1  UNL1        0.0500
     17 O         141.4733  140.8545  171.5096 O.co2   1  UNL1       -0.5492
     18 O         139.2771  139.5215  171.1222 O.co2   1  UNL1       -0.5492
     19 N         142.9594  137.1924  158.4374 N.pl3   1  UNL1       -0.3093
     20 H         143.7279  136.8875  158.9720 H       1  UNL1        0.1487
     21 C         140.9535  136.1099  153.6746 C.3     1  UNL1        0.1537
     22 N         141.6677  135.9728  154.9865 N.ar    1  UNL1       -0.2476
     23 N         141.8010  137.0387  156.0334 N.ar    1  UNL1       -0.1544
     24 C         142.5897  136.4704  157.1757 C.ar    1  UNL1        0.1500
     25 C         142.9439  135.0532  156.8348 C.ar    1  UNL1        0.0503
     26 C         143.7116  134.0031  157.5816 C.ar    1  UNL1        0.0082
     27 C         143.9095  132.6454  156.9754 C.ar    1  UNL1        0.0716
     28 C         143.3396  132.3379  155.6224 C.ar    1  UNL1        0.0054
     29 C         142.5719  133.3880  154.8755 C.ar    1  UNL1        0.0188
     30 C         142.3740  134.7457  155.4818 C.ar    1  UNL1        0.0807
     31 C         144.6772  131.5952  157.7222 C.3     1  UNL1        0.4186
     32 F         145.4449  130.5450  158.4690 F       1  UNL1       -0.1659
     33 F         145.6823  132.6272  158.1402 F       1  UNL1       -0.1659
     34 F         143.6721  130.5631  157.3043 F       1  UNL1       -0.1659
@<TRIPOS>UNITY_ATOM_ATTR
17 1
charge -1
@<TRIPOS>BOND
     1    21    22    1
     2    22    23   ar
     3    23    24   ar
     4    24    19    1
     5    19     1    1
     6     1     2    1
     7     2     3    2
     8     2     4   am
     9     4     6    1
    10     6     7    1
    11     7     8    1
    12    10     8    1
    13    10    11    1
    14    11    12    1
    15    12    13    1
    16    13    16    1
    17    16    17   ar
    18    16    18   ar
    19    13    14    1
    20    14    15    1
    21     8     9    1
    22    24    25   ar
    23    25    26   ar
    24    26    27   ar
    25    27    31    1
    26    31    32    1
    27    31    33    1
    28    31    34    1
    29    27    28   ar
    30    28    29   ar
    31    29    30   ar
    32    30    22   ar
    33     9     6    1
    34    30    25   ar
    35    15    10    1
    36    19    20    1
    37     4     5    1
@<TRIPOS>MOLECULE
*****
 34 37 0 0 0
SMALL
GASTEIGER

@<TRIPOS>ATOM
      1 C         140.2807  138.3303  159.5970 C.3     1  UNL1        0.1747
      2 C         140.2862  138.6401  161.0646 C.2     1  UNL1        0.2425
      3 O         140.6125  137.5638  162.0571 O.2     1  UNL1       -0.2733
      4 N         139.9655  140.0262  161.5396 N.am    1  UNL1       -0.3018
      5 H         139.7513  140.7326  160.8882 H       1  UNL1        0.1495
      6 C         139.9710  140.3360  163.0073 C.3     1  UNL1        0.1035
      7 C         138.9390  140.7794  164.0017 C.3     1  UNL1        0.0933
      8 N         139.9787  140.7742  165.0829 N.3     1  UNL1       -0.2711
      9 C         141.0106  140.3309  164.0886 C.3     1  UNL1        0.0933
     10 C         139.9842  141.0840  166.5505 C.3     1  UNL1        0.0576
     11 C         140.4456  142.4277  167.0317 C.3     1  UNL1        0.0163
     12 C         140.4511  142.7376  168.4992 C.3     1  UNL1        0.0069
     13 C         139.9952  141.7037  169.4858 C.3     1  UNL1        0.0366
     14 C         139.5338  140.3600  169.0047 C.3     1  UNL1        0.0069
     15 C         139.5283  140.0501  167.5370 C.3     1  UNL1        0.0163
     16 C         140.0008  142.0136  170.9534 C.2     1  UNL1        0.0500
     17 O         139.3309  143.2565  171.4600 O.co2   1  UNL1       -0.5492
     18 O         140.6762  141.0808  171.9145 O.co2   1  UNL1       -0.5492
     19 N         141.5245  138.5324  158.7831 N.pl3   1  UNL1       -0.3093
     20 H         141.8732  137.7990  158.2266 H       1  UNL1        0.1487
     21 C         143.2800  143.3275  157.4394 C.3     1  UNL1        0.1537
     22 N         143.0437  142.0561  158.1994 N.ar    1  UNL1       -0.2476
     23 N         142.1875  140.9082  157.7530 N.ar    1  UNL1       -0.1544
     24 C         142.2368  139.8521  158.8170 C.ar    1  UNL1        0.1500
     25 C         143.1233  140.3472  159.9210 C.ar    1  UNL1        0.0503
     26 C         143.5409  139.7337  161.2245 C.ar    1  UNL1        0.0082
     27 C         144.4572  140.4824  162.1463 C.ar    1  UNL1        0.0716
     28 C         144.9560  141.8446  161.7646 C.ar    1  UNL1        0.0054
     29 C         144.5384  142.4581  160.4611 C.ar    1  UNL1        0.0188
     30 C         143.6221  141.7094  159.5393 C.ar    1  UNL1        0.0807
     31 C         144.8749  139.8690  163.4499 C.3     1  UNL1        0.4186
     32 F         145.2925  139.2555  164.7535 F       1  UNL1       -0.1659
     33 F         145.8505  140.9880  163.6639 F       1  UNL1       -0.1659
     34 F         143.8992  138.7499  163.2359 F       1  UNL1       -0.1659
@<TRIPOS>UNITY_ATOM_ATTR
17 1
charge -1
@<TRIPOS>BOND
     1    21    22    1
     2    22    23   ar
     3    23    24   ar
     4    24    19    1
     5    19     1    1
     6     1     2    1
     7     2     3    2
     8     2     4   am
     9     4     6    1
    10     6     7    1
    11     7     8    1
    12    10     8    1
    13    10    11    1
    14    11    12    1
    15    12    13    1
    16    13    16    1
    17    16    17   ar
    18    16    18   ar
    19    13    14    1
    20    14    15    1
    21     8     9    1
    22    24    25   ar
    23    25    26   ar
    24    26    27   ar
    25    27    31    1
    26    31    32    1
    27    31    33    1
    28    31    34    1
    29    27    28   ar
    30    28    29   ar
    31    29    30   ar
    32    30    22   ar
    33     9     6    1
    34    30    25   ar
    35    15    10    1
    36    19    20    1
    37     4     5    1
@<TRIPOS>MOLECULE
*****
 34 37 0 0 0
SMALL
GASTEIGER

@<TRIPOS>ATOM
      1 C         138.7213  139.6626  159.3434 C.3     1  UNL1        0.1747
      2 C         139.3421  139.7281  160.7073 C.2     1  UNL1        0.2425
      3 O         140.8273  139.8834  160.8486 O.2     1  UNL1       -0.2733
      4 N         138.4777  139.6384  161.9298 N.am    1  UNL1       -0.3018
      5 H         137.5029  139.5364  161.8370 H       1  UNL1        0.1495
      6 C         139.0985  139.7039  163.2937 C.3     1  UNL1        0.1035
      7 C         139.8861  140.7308  164.0524 C.3     1  UNL1        0.0933
      8 N         139.9766  139.7967  165.2226 N.3     1  UNL1       -0.2711
      9 C         139.1891  138.7699  164.4639 C.3     1  UNL1        0.0933
     10 C         140.5974  139.8622  166.5865 C.3     1  UNL1        0.0576
     11 C         139.7460  140.1621  167.7845 C.3     1  UNL1        0.0163
     12 C         140.3668  140.2277  169.1483 C.3     1  UNL1        0.0069
     13 C         141.8391  139.9933  169.3144 C.3     1  UNL1        0.0366
     14 C         142.6905  139.6934  168.1164 C.3     1  UNL1        0.0069
     15 C         142.0697  139.6278  166.7525 C.3     1  UNL1        0.0163
     16 C         142.4598  140.0588  170.6783 C.2     1  UNL1        0.0500
     17 O         143.6990  139.2681  170.9771 O.co2   1  UNL1       -0.5492
     18 O         141.8415  140.9150  171.7434 O.co2   1  UNL1       -0.5492
     19 N         138.2100  140.9130  158.6911 N.pl3   1  UNL1       -0.3093
     20 H         137.3456  140.9044  158.2200 H       1  UNL1        0.1487
     21 C         141.4236  144.8933  157.3831 C.3     1  UNL1        0.1537
     22 N         140.4929  144.0060  158.1555 N.ar    1  UNL1       -0.2476
     23 N         139.8731  142.7334  157.6591 N.ar    1  UNL1       -0.1544
     24 C         139.0158  142.1765  158.7567 C.ar    1  UNL1        0.1500
     25 C         139.1058  143.1048  159.9316 C.ar    1  UNL1        0.0503
     26 C         138.4744  143.0665  161.2916 C.ar    1  UNL1        0.0082
     27 C         138.7560  144.1590  162.2801 C.ar    1  UNL1        0.0716
     28 C         139.6689  145.2897  161.9085 C.ar    1  UNL1        0.0054
     29 C         140.3003  145.3280  160.5485 C.ar    1  UNL1        0.0188
     30 C         140.0187  144.2355  159.5600 C.ar    1  UNL1        0.0807
     31 C         138.1246  144.1208  163.6403 C.3     1  UNL1        0.4186
     32 F         137.4932  144.0827  165.0004 F       1  UNL1       -0.1659
     33 F         139.0171  145.2410  164.0860 F       1  UNL1       -0.1659
     34 F         137.2321  143.0007  163.1946 F       1  UNL1       -0.1659
@<TRIPOS>UNITY_ATOM_ATTR
17 1
charge -1
@<TRIPOS>BOND
     1    21    22    1
     2    22    23   ar
     3    23    24   ar
     4    24    19    1
     5    19     1    1
     6     1     2    1
     7     2     3    2
     8     2     4   am
     9     4     6    1
    10     6     7    1
    11     7     8    1
    12    10     8    1
    13    10    11    1
    14    11    12    1
    15    12    13    1
    16    13    16    1
    17    16    17   ar
    18    16    18   ar
    19    13    14    1
    20    14    15    1
    21     8     9    1
    22    24    25   ar
    23    25    26   ar
    24    26    27   ar
    25    27    31    1
    26    31    32    1
    27    31    33    1
    28    31    34    1
    29    27    28   ar
    30    28    29   ar
    31    29    30   ar
    32    30    22   ar
    33     9     6    1
    34    30    25   ar
    35    15    10    1
    36    19    20    1
    37     4     5    1
@<TRIPOS>MOLECULE
*****
 34 37 0 0 0
SMALL
GASTEIGER

@<TRIPOS>ATOM
      1 C         139.7649  138.3943  159.6397 C.3     1  UNL1        0.1747
      2 C         139.8454  139.0715  160.9757 C.2     1  UNL1        0.2425
      3 O         140.2253  140.5201  161.0607 O.2     1  UNL1       -0.2733
      4 N         139.5461  138.3000  162.2268 N.am    1  UNL1       -0.3018
      5 H         139.2968  137.3492  162.1710 H       1  UNL1        0.1495
      6 C         139.6266  138.9772  163.5628 C.3     1  UNL1        0.1035
      7 C         138.7318  139.8946  164.3426 C.3     1  UNL1        0.0933
      8 N         139.7403  139.9350  165.4522 N.3     1  UNL1       -0.2711
      9 C         140.6350  139.0176  164.6725 C.3     1  UNL1        0.0933
     10 C         139.8208  140.6121  166.7882 C.3     1  UNL1        0.0576
     11 C         140.3651  142.0061  166.8909 C.3     1  UNL1        0.0163
     12 C         140.4456  142.6833  168.2268 C.3     1  UNL1        0.0069
     13 C         139.9818  141.9665  169.4603 C.3     1  UNL1        0.0366
     14 C         139.4375  140.5726  169.3576 C.3     1  UNL1        0.0069
     15 C         139.3570  139.8954  168.0216 C.3     1  UNL1        0.0163
     16 C         140.0623  142.6438  170.7962 C.2     1  UNL1        0.0500
     17 O         139.3757  143.9599  171.0125 O.co2   1  UNL1       -0.5492
     18 O         140.8294  142.0052  171.9159 O.co2   1  UNL1       -0.5492
     19 N         139.9296  139.1949  158.3819 N.pl3   1  UNL1       -0.3093
     20 H         140.2127  140.1366  158.4313 H       1  UNL1        0.1487
     21 C         137.7917  138.0988  153.6800 C.3     1  UNL1        0.1537
     22 N         138.6803  138.0570  154.8877 N.ar    1  UNL1       -0.2476
     23 N         138.5801  138.9518  156.0874 N.ar    1  UNL1       -0.1544
     24 C         139.6630  138.5608  157.0489 C.ar    1  UNL1        0.1500
     25 C         140.4324  137.4244  156.4435 C.ar    1  UNL1        0.0503
     26 C         141.6076  136.6330  156.9359 C.ar    1  UNL1        0.0082
     27 C         142.1755  135.5302  156.0925 C.ar    1  UNL1        0.0716
     28 C         141.5682  135.2188  154.7568 C.ar    1  UNL1        0.0054
     29 C         140.3930  136.0102  154.2644 C.ar    1  UNL1        0.0188
     30 C         139.8251  137.1130  155.1077 C.ar    1  UNL1        0.0807
     31 C         143.3508  134.7387  156.5849 C.3     1  UNL1        0.4186
     32 F         144.5259  133.9472  157.0773 F       1  UNL1       -0.1659
     33 F         142.4374  133.6027  156.9386 F       1  UNL1       -0.1659
     34 F         144.2641  135.8747  156.2312 F       1  UNL1       -0.1659
@<TRIPOS>UNITY_ATOM_ATTR
17 1
charge -1
@<TRIPOS>BOND
     1    21    22    1
     2    22    23   ar
     3    23    24   ar
     4    24    19    1
     5    19     1    1
     6     1     2    1
     7     2     3    2
     8     2     4   am
     9     4     6    1
    10     6     7    1
    11     7     8    1
    12    10     8    1
    13    10    11    1
    14    11    12    1
    15    12    13    1
    16    13    16    1
    17    16    17   ar
    18    16    18   ar
    19    13    14    1
    20    14    15    1
    21     8     9    1
    22    24    25   ar
    23    25    26   ar
    24    26    27   ar
    25    27    31    1
    26    31    32    1
    27    31    33    1
    28    31    34    1
    29    27    28   ar
    30    28    29   ar
    31    29    30   ar
    32    30    22   ar
    33     9     6    1
    34    30    25   ar
    35    15    10    1
    36    19    20    1
    37     4     5    1
@<TRIPOS>MOLECULE
*****
 34 37 0 0 0
SMALL
GASTEIGER

@<TRIPOS>ATOM
      1 C         137.1739  139.7698  160.0988 C.3     1  UNL1        0.1747
      2 C         137.6221  140.2426  161.4500 C.2     1  UNL1        0.2425
      3 O         137.3063  141.6386  161.8989 O.2     1  UNL1       -0.2733
      4 N         138.3860  139.3194  162.3522 N.am    1  UNL1       -0.3018
      5 H         138.5933  138.4032  162.0576 H       1  UNL1        0.1495
      6 C         138.8341  139.7922  163.7034 C.3     1  UNL1        0.1035
      7 C         138.1573  140.0383  165.0193 C.3     1  UNL1        0.0933
      8 N         139.4678  140.4608  165.6143 N.3     1  UNL1       -0.2711
      9 C         140.1446  140.2147  164.2985 C.3     1  UNL1        0.0933
     10 C         139.9159  140.9336  166.9654 C.3     1  UNL1        0.0576
     11 C         140.4296  142.3323  167.1383 C.3     1  UNL1        0.0163
     12 C         140.8777  142.8051  168.4893 C.3     1  UNL1        0.0069
     13 C         140.8122  141.8793  169.6678 C.3     1  UNL1        0.0366
     14 C         140.2984  140.4806  169.4950 C.3     1  UNL1        0.0069
     15 C         139.8503  140.0078  168.1438 C.3     1  UNL1        0.0163
     16 C         141.2603  142.3522  171.0188 C.2     1  UNL1        0.0500
     17 O         142.5419  143.1193  171.1579 O.co2   1  UNL1       -0.5492
     18 O         140.4271  142.0581  172.2309 O.co2   1  UNL1       -0.5492
     19 N         137.9548  140.1476  158.8750 N.pl3   1  UNL1       -0.3093
     20 H         137.4902  140.2875  158.0184 H       1  UNL1        0.1487
     21 C         143.1374  139.1792  158.5866 C.3     1  UNL1        0.1537
     22 N         141.8257  139.8670  158.8238 N.ar    1  UNL1       -0.2476
     23 N         140.4663  139.2789  158.5870 N.ar    1  UNL1       -0.1544
     24 C         139.4435  140.3121  158.9564 C.ar    1  UNL1        0.1500
     25 C         140.1709  141.5388  159.4215 C.ar    1  UNL1        0.0503
     26 C         139.6827  142.8707  159.9090 C.ar    1  UNL1        0.0082
     27 C         140.6669  143.9275  160.3145 C.ar    1  UNL1        0.0716
     28 C         142.1392  143.6524  160.2326 C.ar    1  UNL1        0.0054
     29 C         142.6273  142.3205  159.7451 C.ar    1  UNL1        0.0188
     30 C         141.6431  141.2637  159.3395 C.ar    1  UNL1        0.0807
     31 C         140.1788  145.2595  160.8020 C.3     1  UNL1        0.4186
     32 F         139.6908  146.5915  161.2895 F       1  UNL1       -0.1659
     33 F         141.1284  145.9493  159.8680 F       1  UNL1       -0.1659
     34 F         139.2292  144.5697  161.7361 F       1  UNL1       -0.1659
@<TRIPOS>UNITY_ATOM_ATTR
17 1
charge -1
@<TRIPOS>BOND
     1    21    22    1
     2    22    23   ar
     3    23    24   ar
     4    24    19    1
     5    19     1    1
     6     1     2    1
     7     2     3    2
     8     2     4   am
     9     4     6    1
    10     6     7    1
    11     7     8    1
    12    10     8    1
    13    10    11    1
    14    11    12    1
    15    12    13    1
    16    13    16    1
    17    16    17   ar
    18    16    18   ar
    19    13    14    1
    20    14    15    1
    21     8     9    1
    22    24    25   ar
    23    25    26   ar
    24    26    27   ar
    25    27    31    1
    26    31    32    1
    27    31    33    1
    28    31    34    1
    29    27    28   ar
    30    28    29   ar
    31    29    30   ar
    32    30    22   ar
    33     9     6    1
    34    30    25   ar
    35    15    10    1
    36    19    20    1
    37     4     5    1
@<TRIPOS>MOLECULE
*****
 34 37 0 0 0
SMALL
GASTEIGER

@<TRIPOS>ATOM
      1 C         144.4678  139.4772  164.4650 C.3     1  UNL1        0.1747
      2 C         143.8442  138.9565  163.2041 C.2     1  UNL1        0.2425
      3 O         142.6210  138.0911  163.2742 O.2     1  UNL1       -0.2733
      4 N         144.4438  139.3011  161.8730 N.am    1  UNL1       -0.3018
      5 H         145.2466  139.8690  161.8270 H       1  UNL1        0.1495
      6 C         143.8202  138.7803  160.6121 C.3     1  UNL1        0.1035
      7 C         143.4932  139.3657  159.2702 C.3     1  UNL1        0.0933
      8 N         142.9382  138.0439  158.8289 N.3     1  UNL1       -0.2711
      9 C         143.2651  137.4586  160.1707 C.3     1  UNL1        0.0933
     10 C         142.3145  137.5232  157.5680 C.3     1  UNL1        0.0576
     11 C         140.8594  137.7647  157.2958 C.3     1  UNL1        0.0163
     12 C         140.2357  137.2440  156.0349 C.3     1  UNL1        0.0069
     13 C         141.0672  136.4817  155.0462 C.3     1  UNL1        0.0366
     14 C         142.5224  136.2402  155.3184 C.3     1  UNL1        0.0069
     15 C         143.1461  136.7609  156.5793 C.3     1  UNL1        0.0163
     16 C         140.4435  135.9610  153.7853 C.2     1  UNL1        0.0500
     17 O         139.3059  136.7035  153.1492 O.co2   1  UNL1       -0.5492
     18 O         140.9572  134.6978  153.1605 O.co2   1  UNL1       -0.5492
     19 N         143.6295  140.2131  165.4679 N.pl3   1  UNL1       -0.3093
     20 H         143.8554  140.1692  166.4252 H       1  UNL1        0.1487
     21 C         140.6712  144.0862  163.4363 C.3     1  UNL1        0.1537
     22 N         141.0874  142.7961  164.0785 N.ar    1  UNL1       -0.2476
     23 N         142.4960  142.3695  164.3679 N.ar    1  UNL1       -0.1544
     24 C         142.4472  141.0159  165.0124 C.ar    1  UNL1        0.1500
     25 C         141.0084  140.6059  165.1213 C.ar    1  UNL1        0.0503
     26 C         140.3549  139.3730  165.6715 C.ar    1  UNL1        0.0082
     27 C         138.8611  139.2402  165.6445 C.ar    1  UNL1        0.0716
     28 C         138.0207  140.3405  165.0673 C.ar    1  UNL1        0.0054
     29 C         138.6741  141.5735  164.5172 C.ar    1  UNL1        0.0188
     30 C         140.1680  141.7062  164.5442 C.ar    1  UNL1        0.0807
     31 C         138.2076  138.0072  166.1946 C.3     1  UNL1        0.4186
     32 F         137.5542  136.7742  166.7447 F       1  UNL1       -0.1659
     33 F         138.8288  137.1900  165.1009 F       1  UNL1       -0.1659
     34 F         137.5864  138.8244  167.2884 F       1  UNL1       -0.1659
@<TRIPOS>UNITY_ATOM_ATTR
17 1
charge -1
@<TRIPOS>BOND
     1    21    22    1
     2    22    23   ar
     3    23    24   ar
     4    24    19    1
     5    19     1    1
     6     1     2    1
     7     2     3    2
     8     2     4   am
     9     4     6    1
    10     6     7    1
    11     7     8    1
    12    10     8    1
    13    10    11    1
    14    11    12    1
    15    12    13    1
    16    13    16    1
    17    16    17   ar
    18    16    18   ar
    19    13    14    1
    20    14    15    1
    21     8     9    1
    22    24    25   ar
    23    25    26   ar
    24    26    27   ar
    25    27    31    1
    26    31    32    1
    27    31    33    1
    28    31    34    1
    29    27    28   ar
    30    28    29   ar
    31    29    30   ar
    32    30    22   ar
    33     9     6    1
    34    30    25   ar
    35    15    10    1
    36    19    20    1
    37     4     5    1
@<TRIPOS>MOLECULE
*****
 34 37 0 0 0
SMALL
GASTEIGER

@<TRIPOS>ATOM
      1 C         141.6877  144.9002  159.7903 C.3     1  UNL1        0.1747
      2 C         141.6119  144.4168  161.2083 C.2     1  UNL1        0.2425
      3 O         142.7104  144.7498  162.1739 O.2     1  UNL1       -0.2733
      4 N         140.4377  143.6004  161.6605 N.am    1  UNL1       -0.3018
      5 H         139.7167  143.3818  161.0267 H       1  UNL1        0.1495
      6 C         140.3619  143.1171  163.0785 C.3     1  UNL1        0.1035
      7 C         139.2826  142.5406  163.9463 C.3     1  UNL1        0.0933
      8 N         140.2546  142.4335  165.0838 N.3     1  UNL1       -0.2711
      9 C         141.3337  143.0099  164.2160 C.3     1  UNL1        0.0933
     10 C         140.1787  141.9501  166.5018 C.3     1  UNL1        0.0576
     11 C         139.8204  140.5222  166.7893 C.3     1  UNL1        0.0163
     12 C         139.7446  140.0388  168.2071 C.3     1  UNL1        0.0069
     13 C         140.0271  140.9834  169.3377 C.3     1  UNL1        0.0366
     14 C         140.3855  142.4113  169.0502 C.3     1  UNL1        0.0069
     15 C         140.4613  142.8946  167.6322 C.3     1  UNL1        0.0163
     16 C         139.9513  140.4999  170.7556 C.2     1  UNL1        0.0500
     17 O         139.0765  139.3322  171.1040 O.co2   1  UNL1       -0.5492
     18 O         140.7501  141.1840  171.8251 O.co2   1  UNL1       -0.5492
     19 N         142.5806  144.2030  158.8070 N.pl3   1  UNL1       -0.3093
     20 H         143.2029  144.7252  158.2508 H       1  UNL1        0.1487
     21 C         141.5565  139.3629  156.9616 C.3     1  UNL1        0.1537
     22 N         142.0547  140.4855  157.8229 N.ar    1  UNL1       -0.2476
     23 N         141.8688  141.9500  157.5571 N.ar    1  UNL1       -0.1544
     24 C         142.5254  142.7102  158.6711 C.ar    1  UNL1        0.1500
     25 C         143.1170  141.7155  159.6253 C.ar    1  UNL1        0.0503
     26 C         143.8830  141.8842  160.9039 C.ar    1  UNL1        0.0082
     27 C         144.3582  140.6779  161.6582 C.ar    1  UNL1        0.0716
     28 C         144.0672  139.3029  161.1339 C.ar    1  UNL1        0.0054
     29 C         143.3012  139.1342  159.8554 C.ar    1  UNL1        0.0188
     30 C         142.8261  140.3405  159.1011 C.ar    1  UNL1        0.0807
     31 C         145.1242  140.8465  162.9368 C.3     1  UNL1        0.4186
     32 F         145.8903  141.0151  164.2153 F       1  UNL1       -0.1659
     33 F         145.5461  142.2190  162.5030 F       1  UNL1       -0.1659
     34 F         144.7024  139.4740  163.3706 F       1  UNL1       -0.1659
@<TRIPOS>UNITY_ATOM_ATTR
17 1
charge -1
@<TRIPOS>BOND
     1    21    22    1
     2    22    23   ar
     3    23    24   ar
     4    24    19    1
     5    19     1    1
     6     1     2    1
     7     2     3    2
     8     2     4   am
     9     4     6    1
    10     6     7    1
    11     7     8    1
    12    10     8    1
    13    10    11    1
    14    11    12    1
    15    12    13    1
    16    13    16    1
    17    16    17   ar
    18    16    18   ar
    19    13    14    1
    20    14    15    1
    21     8     9    1
    22    24    25   ar
    23    25    26   ar
    24    26    27   ar
    25    27    31    1
    26    31    32    1
    27    31    33    1
    28    31    34    1
    29    27    28   ar
    30    28    29   ar
    31    29    30   ar
    32    30    22   ar
    33     9     6    1
    34    30    25   ar
    35    15    10    1
    36    19    20    1
    37     4     5    1
