@<TRIPOS>MOLECULE
*****
 33 36 0 0 0
SMALL
GASTEIGER

@<TRIPOS>ATOM
      1 C         140.3208  144.1701  159.4895 C.3     1  UNL1        0.0517
      2 C         140.4134  144.3155  160.9796 C.ar    1  UNL1        0.0582
      3 C         140.1441  145.5667  161.7618 C.ar    1  UNL1        0.1132
      4 N         140.3559  145.2597  163.2147 N.ar    1  UNL1       -0.2256
      5 C         140.7562  143.8187  163.3304 C.ar    1  UNL1        0.1438
      6 N         140.7918  143.2352  161.9491 N.ar    1  UNL1       -0.3106
      7 C         141.0665  143.0894  164.6040 C.ar    1  UNL1        0.0342
      8 C         142.4595  142.5996  164.8675 C.ar    1  UNL1        0.0031
      9 C         142.7698  141.8703  166.1409 C.ar    1  UNL1        0.0031
     10 C         141.6869  141.6308  167.1510 C.ar    1  UNL1        0.0346
     11 C         140.2939  142.1206  166.8875 C.ar    1  UNL1        0.0031
     12 C         139.9837  142.8499  165.6140 C.ar    1  UNL1        0.0031
     13 C         141.9972  140.9014  168.4245 C.ar    1  UNL1        0.1454
     14 C         142.3989  139.4608  168.5401 C.ar    1  UNL1        0.0407
     15 C         142.6102  139.1536  169.9930 C.ar    1  UNL1        0.0438
     16 C         142.3391  140.4045  170.7754 C.ar    1  UNL1        0.1796
     17 O         141.9603  141.4846  169.8060 O.2     1  UNL1       -0.4504
     18 C         141.1438  141.8198  161.5986 C.3     1  UNL1        0.1369
     19 C         140.0767  140.7660  161.5722 C.ar    1  UNL1        0.0344
     20 C         138.6354  141.1612  161.4438 C.ar    1  UNL1        0.0006
     21 C         137.5683  140.1075  161.4174 C.ar    1  UNL1       -0.0001
     22 C         137.9424  138.6585  161.5193 C.ar    1  UNL1        0.0031
     23 C         139.3836  138.2632  161.6477 C.ar    1  UNL1        0.0366
     24 C         140.4508  139.3170  161.6742 C.ar    1  UNL1        0.1363
     25 O         141.8921  138.9218  161.8026 O.3     1  UNL1       -0.4757
     26 C         142.5350  138.8596  163.1564 C.3     1  UNL1        0.2054
     27 C         141.8759  138.0937  164.2651 C.3     1  UNL1        0.0473
     28 C         140.8896  138.7768  165.1653 C.3     1  UNL1        0.0042
     29 C         139.4867  138.2568  165.2725 C.3     1  UNL1        0.0060
     30 C         138.4218  139.0980  165.9115 C.3     1  UNL1        0.0417
     31 C         137.9334  138.7691  167.2911 C.2     1  UNL1        0.0503
     32 O         136.8200  137.7815  167.4769 O.co2   1  UNL1       -0.5492
     33 O         138.5587  139.4278  168.4849 O.co2   1  UNL1       -0.5492
@<TRIPOS>UNITY_ATOM_ATTR
32 1
charge -1
@<TRIPOS>BOND
     1     1     2    1
     2     2     3   ar
     3     3     4   ar
     4     4     5   ar
     5     5     7    1
     6     7     8   ar
     7     8     9   ar
     8     9    10   ar
     9    10    13    1
    10    13    14   ar
    11    14    15   ar
    12    15    16   ar
    13    16    17   ar
    14    10    11   ar
    15    11    12   ar
    16     5     6   ar
    17     6    18    1
    18    18    19    1
    19    19    20   ar
    20    20    21   ar
    21    21    22   ar
    22    22    23   ar
    23    23    24   ar
    24    24    25    1
    25    25    26    1
    26    26    27    1
    27    27    28    1
    28    28    29    1
    29    29    30    1
    30    30    31    1
    31    31    32   ar
    32    31    33   ar
    33     6     2   ar
    34    24    19   ar
    35    12     7   ar
    36    17    13   ar
@<TRIPOS>MOLECULE
*****
 33 36 0 0 0
SMALL
GASTEIGER

@<TRIPOS>ATOM
      1 C         141.4659  138.5116  159.4193 C.3     1  UNL1        0.0517
      2 C         142.2421  138.7598  160.6786 C.ar    1  UNL1        0.0582
      3 C         143.7132  138.5345  160.8665 C.ar    1  UNL1        0.1132
      4 N         144.0637  138.9124  162.2752 N.ar    1  UNL1       -0.2256
      5 C         142.8094  139.3711  162.9579 C.ar    1  UNL1        0.1438
      6 N         141.6836  139.2769  161.9712 N.ar    1  UNL1       -0.3106
      7 C         142.7000  139.8416  164.3781 C.ar    1  UNL1        0.0342
      8 C         142.6746  138.8447  165.4985 C.ar    1  UNL1        0.0031
      9 C         142.5653  139.3152  166.9186 C.ar    1  UNL1        0.0031
     10 C         142.4813  140.7826  167.2182 C.ar    1  UNL1        0.0346
     11 C         142.5068  141.7795  166.0977 C.ar    1  UNL1        0.0031
     12 C         142.6161  141.3090  164.6777 C.ar    1  UNL1        0.0031
     13 C         142.3720  141.2530  168.6384 C.ar    1  UNL1        0.1454
     14 C         142.8998  142.5479  169.1813 C.ar    1  UNL1        0.0407
     15 C         142.5697  142.6064  170.6434 C.ar    1  UNL1        0.0438
     16 C         141.8379  141.3477  171.0040 C.ar    1  UNL1        0.1796
     17 O         141.7157  140.5113  169.7649 O.2     1  UNL1       -0.4504
     18 C         140.2507  139.6365  162.2313 C.3     1  UNL1        0.1369
     19 C         139.5958  139.2259  163.5167 C.ar    1  UNL1        0.0344
     20 C         139.5165  137.7746  163.8879 C.ar    1  UNL1        0.0006
     21 C         138.8615  137.3640  165.1732 C.ar    1  UNL1       -0.0001
     22 C         138.2858  138.4044  166.0875 C.ar    1  UNL1        0.0031
     23 C         138.3650  139.8556  165.7164 C.ar    1  UNL1        0.0366
     24 C         139.0200  140.2663  164.4309 C.ar    1  UNL1        0.1363
     25 O         139.0992  141.7175  164.0598 O.3     1  UNL1       -0.4757
     26 C         137.9253  142.6190  164.3030 C.3     1  UNL1        0.2054
     27 C         138.1332  144.0969  164.4537 C.3     1  UNL1        0.0473
     28 C         139.5050  144.6369  164.7303 C.3     1  UNL1        0.0042
     29 C         140.3906  145.0528  163.5934 C.3     1  UNL1        0.0060
     30 C         141.8815  145.0287  163.7565 C.3     1  UNL1        0.0417
     31 C         142.7520  144.5614  162.6278 C.2     1  UNL1        0.0503
     32 O         144.2188  144.8747  162.6325 O.co2   1  UNL1       -0.5492
     33 O         142.1555  143.7807  161.4944 O.co2   1  UNL1       -0.5492
@<TRIPOS>UNITY_ATOM_ATTR
32 1
charge -1
@<TRIPOS>BOND
     1     1     2    1
     2     2     3   ar
     3     3     4   ar
     4     4     5   ar
     5     5     7    1
     6     7     8   ar
     7     8     9   ar
     8     9    10   ar
     9    10    13    1
    10    13    14   ar
    11    14    15   ar
    12    15    16   ar
    13    16    17   ar
    14    10    11   ar
    15    11    12   ar
    16     5     6   ar
    17     6    18    1
    18    18    19    1
    19    19    20   ar
    20    20    21   ar
    21    21    22   ar
    22    22    23   ar
    23    23    24   ar
    24    24    25    1
    25    25    26    1
    26    26    27    1
    27    27    28    1
    28    28    29    1
    29    29    30    1
    30    30    31    1
    31    31    32   ar
    32    31    33   ar
    33     6     2   ar
    34    24    19   ar
    35    12     7   ar
    36    17    13   ar
@<TRIPOS>MOLECULE
*****
 33 36 0 0 0
SMALL
GASTEIGER

@<TRIPOS>ATOM
      1 C         143.7013  139.8096  159.0150 C.3     1  UNL1        0.0517
      2 C         142.8457  139.8192  160.2470 C.ar    1  UNL1        0.0582
      3 C         141.5577  139.0729  160.4319 C.ar    1  UNL1        0.1132
      4 N         141.0439  139.3693  161.8096 N.ar    1  UNL1       -0.2256
      5 C         142.0143  140.2988  162.4762 C.ar    1  UNL1        0.1438
      6 N         143.1279  140.5769  161.5105 N.ar    1  UNL1       -0.3106
      7 C         141.8925  140.8530  163.8648 C.ar    1  UNL1        0.0342
      8 C         141.0977  142.1018  164.1069 C.ar    1  UNL1        0.0031
      9 C         140.9759  142.6559  165.4954 C.ar    1  UNL1        0.0031
     10 C         141.6489  141.9612  166.6419 C.ar    1  UNL1        0.0346
     11 C         142.4437  140.7123  166.3998 C.ar    1  UNL1        0.0031
     12 C         142.5655  140.1582  165.0113 C.ar    1  UNL1        0.0031
     13 C         141.5271  142.5153  168.0305 C.ar    1  UNL1        0.1454
     14 C         140.2985  143.1346  168.6280 C.ar    1  UNL1        0.0407
     15 C         140.6245  143.5495  170.0321 C.ar    1  UNL1        0.0438
     16 C         142.0547  143.1867  170.3024 C.ar    1  UNL1        0.1796
     17 O         142.6125  142.5475  169.0653 O.2     1  UNL1       -0.4504
     18 C         144.3152  141.4579  161.7637 C.3     1  UNL1        0.1369
     19 C         144.2097  142.5988  162.7317 C.ar    1  UNL1        0.0344
     20 C         144.8190  142.4824  164.0975 C.ar    1  UNL1        0.0006
     21 C         144.7137  143.6233  165.0655 C.ar    1  UNL1       -0.0001
     22 C         143.9990  144.8807  164.6679 C.ar    1  UNL1        0.0031
     23 C         143.3897  144.9972  163.3022 C.ar    1  UNL1        0.0366
     24 C         143.4950  143.8563  162.3341 C.ar    1  UNL1        0.1363
     25 O         142.8857  143.9727  160.9684 O.3     1  UNL1       -0.4757
     26 C         141.3946  144.0269  160.8145 C.3     1  UNL1        0.2054
     27 C         140.7048  145.3491  160.6538 C.3     1  UNL1        0.0473
     28 C         140.0156  145.9827  161.8258 C.3     1  UNL1        0.0042
     29 C         139.5816  145.1382  162.9870 C.3     1  UNL1        0.0060
     30 C         138.1778  144.6132  163.0493 C.3     1  UNL1        0.0417
     31 C         137.8500  143.2764  162.4530 C.2     1  UNL1        0.0503
     32 O         138.0141  143.0521  160.9791 O.co2   1  UNL1       -0.5492
     33 O         137.3579  142.1641  163.3308 O.co2   1  UNL1       -0.5492
@<TRIPOS>UNITY_ATOM_ATTR
32 1
charge -1
@<TRIPOS>BOND
     1     1     2    1
     2     2     3   ar
     3     3     4   ar
     4     4     5   ar
     5     5     7    1
     6     7     8   ar
     7     8     9   ar
     8     9    10   ar
     9    10    13    1
    10    13    14   ar
    11    14    15   ar
    12    15    16   ar
    13    16    17   ar
    14    10    11   ar
    15    11    12   ar
    16     5     6   ar
    17     6    18    1
    18    18    19    1
    19    19    20   ar
    20    20    21   ar
    21    21    22   ar
    22    22    23   ar
    23    23    24   ar
    24    24    25    1
    25    25    26    1
    26    26    27    1
    27    27    28    1
    28    28    29    1
    29    29    30    1
    30    30    31    1
    31    31    32   ar
    32    31    33   ar
    33     6     2   ar
    34    24    19   ar
    35    12     7   ar
    36    17    13   ar
@<TRIPOS>MOLECULE
*****
 33 36 0 0 0
SMALL
GASTEIGER

@<TRIPOS>ATOM
      1 C         138.4209  139.6322  159.3898 C.3     1  UNL1        0.0517
      2 C         138.8121  139.3260  160.8052 C.ar    1  UNL1        0.0582
      3 C         138.7235  137.9863  161.4742 C.ar    1  UNL1        0.1132
      4 N         139.2172  138.1381  162.8825 N.ar    1  UNL1       -0.2256
      5 C         139.6108  139.5715  163.0838 C.ar    1  UNL1        0.1438
      6 N         139.3605  140.3056  161.8000 N.ar    1  UNL1       -0.3106
      7 C         140.1586  140.1662  164.3473 C.ar    1  UNL1        0.0342
      8 C         139.2254  140.5953  165.4404 C.ar    1  UNL1        0.0031
      9 C         139.7733  141.1900  166.7038 C.ar    1  UNL1        0.0031
     10 C         141.2543  141.3557  166.8740 C.ar    1  UNL1        0.0346
     11 C         142.1876  140.9267  165.7809 C.ar    1  UNL1        0.0031
     12 C         141.6397  140.3319  164.5175 C.ar    1  UNL1        0.0031
     13 C         141.8022  141.9505  168.1374 C.ar    1  UNL1        0.1454
     14 C         141.0569  142.8385  169.0893 C.ar    1  UNL1        0.0407
     15 C         141.9855  143.1986  170.2109 C.ar    1  UNL1        0.0438
     16 C         143.3047  142.5330  169.9523 C.ar    1  UNL1        0.1796
     17 O         143.1913  141.7617  168.6708 O.2     1  UNL1       -0.4504
     18 C         139.6139  141.7634  161.5540 C.3     1  UNL1        0.1369
     19 C         139.3709  142.7618  162.6467 C.ar    1  UNL1        0.0344
     20 C         137.9755  143.0124  163.1369 C.ar    1  UNL1        0.0006
     21 C         137.7323  144.0107  164.2296 C.ar    1  UNL1       -0.0001
     22 C         138.8845  144.7586  164.8322 C.ar    1  UNL1        0.0031
     23 C         140.2798  144.5081  164.3421 C.ar    1  UNL1        0.0366
     24 C         140.5230  143.5097  163.2493 C.ar    1  UNL1        0.1363
     25 O         141.9184  143.2592  162.7592 O.3     1  UNL1       -0.4757
     26 C         142.7958  144.4127  162.3725 C.3     1  UNL1        0.2054
     27 C         144.0178  144.7300  163.1825 C.3     1  UNL1        0.0473
     28 C         144.1140  144.2690  164.6067 C.3     1  UNL1        0.0042
     29 C         144.7514  142.9493  164.9264 C.3     1  UNL1        0.0060
     30 C         145.5703  142.2410  163.8884 C.3     1  UNL1        0.0417
     31 C         145.0727  140.9605  163.2859 C.2     1  UNL1        0.0503
     32 O         144.5081  140.9551  161.8964 O.co2   1  UNL1       -0.5492
     33 O         145.1398  139.6855  164.0732 O.co2   1  UNL1       -0.5492
@<TRIPOS>UNITY_ATOM_ATTR
32 1
charge -1
@<TRIPOS>BOND
     1     1     2    1
     2     2     3   ar
     3     3     4   ar
     4     4     5   ar
     5     5     7    1
     6     7     8   ar
     7     8     9   ar
     8     9    10   ar
     9    10    13    1
    10    13    14   ar
    11    14    15   ar
    12    15    16   ar
    13    16    17   ar
    14    10    11   ar
    15    11    12   ar
    16     5     6   ar
    17     6    18    1
    18    18    19    1
    19    19    20   ar
    20    20    21   ar
    21    21    22   ar
    22    22    23   ar
    23    23    24   ar
    24    24    25    1
    25    25    26    1
    26    26    27    1
    27    27    28    1
    28    28    29    1
    29    29    30    1
    30    30    31    1
    31    31    32   ar
    32    31    33   ar
    33     6     2   ar
    34    24    19   ar
    35    12     7   ar
    36    17    13   ar
@<TRIPOS>MOLECULE
*****
 33 36 0 0 0
SMALL
GASTEIGER

@<TRIPOS>ATOM
      1 C         140.5792  140.3552  158.4392 C.3     1  UNL1        0.0517
      2 C         140.1646  139.7326  159.7394 C.ar    1  UNL1        0.0582
      3 C         139.5465  138.3765  159.9101 C.ar    1  UNL1        0.1132
      4 N         139.2953  138.1626  161.3734 N.ar    1  UNL1       -0.2256
      5 C         139.7582  139.3863  162.1070 C.ar    1  UNL1        0.1438
      6 N         140.2955  140.3566  161.0971 N.ar    1  UNL1       -0.3106
      7 C         139.6949  139.6019  163.5901 C.ar    1  UNL1        0.0342
      8 C         140.9588  139.6406  164.3970 C.ar    1  UNL1        0.0031
      9 C         140.8955  139.8562  165.8800 C.ar    1  UNL1        0.0031
     10 C         139.5683  140.0331  166.5562 C.ar    1  UNL1        0.0346
     11 C         138.3044  139.9944  165.7494 C.ar    1  UNL1        0.0031
     12 C         138.3677  139.7788  164.2663 C.ar    1  UNL1        0.0031
     13 C         139.5050  140.2486  168.0393 C.ar    1  UNL1        0.1454
     14 C         140.3920  141.1584  168.8367 C.ar    1  UNL1        0.0407
     15 C         139.9789  141.0643  170.2756 C.ar    1  UNL1        0.0438
     16 C         138.8366  140.0964  170.3675 C.ar    1  UNL1        0.1796
     17 O         138.5437  139.5923  168.9855 O.2     1  UNL1       -0.4504
     18 C         140.8639  141.7129  161.3930 C.3     1  UNL1        0.1369
     19 C         142.3251  141.8640  161.6958 C.ar    1  UNL1        0.0344
     20 C         143.2165  140.6576  161.7116 C.ar    1  UNL1        0.0006
     21 C         144.6777  140.8086  162.0144 C.ar    1  UNL1       -0.0001
     22 C         145.2478  142.1661  162.3015 C.ar    1  UNL1        0.0031
     23 C         144.3565  143.3724  162.2858 C.ar    1  UNL1        0.0366
     24 C         142.8952  143.2214  161.9829 C.ar    1  UNL1        0.1363
     25 O         142.0039  144.4278  161.9672 O.3     1  UNL1       -0.4757
     26 C         141.4315  144.9541  163.2499 C.3     1  UNL1        0.2054
     27 C         141.5330  144.1405  164.5060 C.3     1  UNL1        0.0473
     28 C         140.3566  143.3376  164.9765 C.3     1  UNL1        0.0042
     29 C         139.0226  143.9985  165.1600 C.3     1  UNL1        0.0060
     30 C         137.8293  143.5036  164.3978 C.3     1  UNL1        0.0417
     31 C         137.7955  143.6152  162.9023 C.2     1  UNL1        0.0503
     32 O         137.4673  142.4130  162.0677 O.co2   1  UNL1       -0.5492
     33 O         138.0901  144.9292  162.2415 O.co2   1  UNL1       -0.5492
@<TRIPOS>UNITY_ATOM_ATTR
32 1
charge -1
@<TRIPOS>BOND
     1     1     2    1
     2     2     3   ar
     3     3     4   ar
     4     4     5   ar
     5     5     7    1
     6     7     8   ar
     7     8     9   ar
     8     9    10   ar
     9    10    13    1
    10    13    14   ar
    11    14    15   ar
    12    15    16   ar
    13    16    17   ar
    14    10    11   ar
    15    11    12   ar
    16     5     6   ar
    17     6    18    1
    18    18    19    1
    19    19    20   ar
    20    20    21   ar
    21    21    22   ar
    22    22    23   ar
    23    23    24   ar
    24    24    25    1
    25    25    26    1
    26    26    27    1
    27    27    28    1
    28    28    29    1
    29    29    30    1
    30    30    31    1
    31    31    32   ar
    32    31    33   ar
    33     6     2   ar
    34    24    19   ar
    35    12     7   ar
    36    17    13   ar
@<TRIPOS>MOLECULE
*****
 33 36 0 0 0
SMALL
GASTEIGER

@<TRIPOS>ATOM
      1 C         142.3837  139.7590  159.1026 C.3     1  UNL1        0.0517
      2 C         142.7646  139.5386  160.5366 C.ar    1  UNL1        0.0582
      3 C         143.5910  138.4037  161.0649 C.ar    1  UNL1        0.1132
      4 N         143.7231  138.5780  162.5488 N.ar    1  UNL1       -0.2256
      5 C         142.9783  139.8207  162.9377 C.ar    1  UNL1        0.1438
      6 N         142.3859  140.4143  161.6940 N.ar    1  UNL1       -0.3106
      7 C         142.8487  140.3727  164.3264 C.ar    1  UNL1        0.0342
      8 C         143.4731  141.6925  164.6702 C.ar    1  UNL1        0.0031
      9 C         143.3435  142.2445  166.0588 C.ar    1  UNL1        0.0031
     10 C         142.5895  141.4767  167.1038 C.ar    1  UNL1        0.0346
     11 C         141.9651  140.1569  166.7600 C.ar    1  UNL1        0.0031
     12 C         142.0947  139.6049  165.3713 C.ar    1  UNL1        0.0031
     13 C         142.4599  142.0288  168.4925 C.ar    1  UNL1        0.1454
     14 C         141.2488  141.9280  169.3719 C.ar    1  UNL1        0.0407
     15 C         141.5590  142.6154  170.6685 C.ar    1  UNL1        0.0438
     16 C         142.9617  143.1410  170.5905 C.ar    1  UNL1        0.1796
     17 O         143.5185  142.7785  169.2456 O.2     1  UNL1       -0.4504
     18 C         141.5599  141.6642  161.6207 C.3     1  UNL1        0.1369
     19 C         140.2698  141.7564  162.3803 C.ar    1  UNL1        0.0344
     20 C         140.1403  142.7175  163.5247 C.ar    1  UNL1        0.0006
     21 C         138.8503  142.8097  164.2843 C.ar    1  UNL1       -0.0001
     22 C         137.6896  141.9409  163.8997 C.ar    1  UNL1        0.0031
     23 C         137.8191  140.9798  162.7554 C.ar    1  UNL1        0.0366
     24 C         139.1092  140.8875  161.9957 C.ar    1  UNL1        0.1363
     25 O         139.2386  139.9264  160.8513 O.3     1  UNL1       -0.4757
     26 C         139.2419  138.4488  161.1096 C.3     1  UNL1        0.2054
     27 C         138.6832  137.9107  162.3936 C.3     1  UNL1        0.0473
     28 C         139.5324  137.8884  163.6298 C.3     1  UNL1        0.0042
     29 C         138.8979  137.6716  164.9717 C.3     1  UNL1        0.0060
     30 C         138.3352  138.8356  165.7321 C.3     1  UNL1        0.0417
     31 C         137.9107  138.6637  167.1605 C.2     1  UNL1        0.0503
     32 O         136.7746  137.7452  167.4999 O.co2   1  UNL1       -0.5492
     33 O         138.6226  139.4104  168.2494 O.co2   1  UNL1       -0.5492
@<TRIPOS>UNITY_ATOM_ATTR
32 1
charge -1
@<TRIPOS>BOND
     1     1     2    1
     2     2     3   ar
     3     3     4   ar
     4     4     5   ar
     5     5     7    1
     6     7     8   ar
     7     8     9   ar
     8     9    10   ar
     9    10    13    1
    10    13    14   ar
    11    14    15   ar
    12    15    16   ar
    13    16    17   ar
    14    10    11   ar
    15    11    12   ar
    16     5     6   ar
    17     6    18    1
    18    18    19    1
    19    19    20   ar
    20    20    21   ar
    21    21    22   ar
    22    22    23   ar
    23    23    24   ar
    24    24    25    1
    25    25    26    1
    26    26    27    1
    27    27    28    1
    28    28    29    1
    29    29    30    1
    30    30    31    1
    31    31    32   ar
    32    31    33   ar
    33     6     2   ar
    34    24    19   ar
    35    12     7   ar
    36    17    13   ar
@<TRIPOS>MOLECULE
*****
 33 36 0 0 0
SMALL
GASTEIGER

@<TRIPOS>ATOM
      1 C         137.3537  139.8544  159.9239 C.3     1  UNL1        0.0517
      2 C         138.1572  139.4022  161.1070 C.ar    1  UNL1        0.0582
      3 C         139.1042  138.2392  161.1372 C.ar    1  UNL1        0.1132
      4 N         139.6871  138.1517  162.5165 N.ar    1  UNL1       -0.2256
      5 C         139.1004  139.2606  163.3388 C.ar    1  UNL1        0.1438
      6 N         138.1549  140.0334  162.4677 N.ar    1  UNL1       -0.3106
      7 C         139.4056  139.5465  164.7794 C.ar    1  UNL1        0.0342
      8 C         138.4063  139.1961  165.8417 C.ar    1  UNL1        0.0031
      9 C         138.7116  139.4819  167.2822 C.ar    1  UNL1        0.0031
     10 C         140.0162  140.1182  167.6604 C.ar    1  UNL1        0.0346
     11 C         141.0156  140.4686  166.5981 C.ar    1  UNL1        0.0031
     12 C         140.7103  140.1827  165.1576 C.ar    1  UNL1        0.0031
     13 C         140.3215  140.4040  169.1010 C.ar    1  UNL1        0.1454
     14 C         140.9646  141.6493  169.6357 C.ar    1  UNL1        0.0407
     15 C         141.0778  141.5097  171.1248 C.ar    1  UNL1        0.0438
     16 C         140.5046  140.1782  171.5105 C.ar    1  UNL1        0.1796
     17 O         140.0372  139.4949  170.2597 O.2     1  UNL1       -0.4504
     18 C         137.3486  141.2277  162.8842 C.3     1  UNL1        0.1369
     19 C         138.0385  142.5103  163.2432 C.ar    1  UNL1        0.0344
     20 C         138.3762  142.8051  164.6747 C.ar    1  UNL1        0.0006
     21 C         139.0661  144.0876  165.0338 C.ar    1  UNL1       -0.0001
     22 C         139.4183  145.0755  163.9615 C.ar    1  UNL1        0.0031
     23 C         139.0807  144.7808  162.5300 C.ar    1  UNL1        0.0366
     24 C         138.3908  143.4982  162.1708 C.ar    1  UNL1        0.1363
     25 O         138.0531  143.2035  160.7394 O.3     1  UNL1       -0.4757
     26 C         139.1467  142.9066  159.7566 C.3     1  UNL1        0.2054
     27 C         140.5744  142.8607  160.2147 C.3     1  UNL1        0.0473
     28 C         141.1060  141.6315  160.8903 C.3     1  UNL1        0.0042
     29 C         141.8101  141.7462  162.2098 C.3     1  UNL1        0.0060
     30 C         142.3774  143.0647  162.6451 C.3     1  UNL1        0.0417
     31 C         143.6784  143.5465  162.0746 C.2     1  UNL1        0.0503
     32 O         144.3047  144.8063  162.5946 O.co2   1  UNL1       -0.5492
     33 O         144.3530  142.7683  160.9841 O.co2   1  UNL1       -0.5492
@<TRIPOS>UNITY_ATOM_ATTR
32 1
charge -1
@<TRIPOS>BOND
     1     1     2    1
     2     2     3   ar
     3     3     4   ar
     4     4     5   ar
     5     5     7    1
     6     7     8   ar
     7     8     9   ar
     8     9    10   ar
     9    10    13    1
    10    13    14   ar
    11    14    15   ar
    12    15    16   ar
    13    16    17   ar
    14    10    11   ar
    15    11    12   ar
    16     5     6   ar
    17     6    18    1
    18    18    19    1
    19    19    20   ar
    20    20    21   ar
    21    21    22   ar
    22    22    23   ar
    23    23    24   ar
    24    24    25    1
    25    25    26    1
    26    26    27    1
    27    27    28    1
    28    28    29    1
    29    29    30    1
    30    30    31    1
    31    31    32   ar
    32    31    33   ar
    33     6     2   ar
    34    24    19   ar
    35    12     7   ar
    36    17    13   ar
@<TRIPOS>MOLECULE
*****
 33 36 0 0 0
SMALL
GASTEIGER

@<TRIPOS>ATOM
      1 C         141.9476  144.3779  158.7906 C.3     1  UNL1        0.0517
      2 C         142.3478  143.4249  159.8776 C.ar    1  UNL1        0.0582
      3 C         143.0691  142.1234  159.6878 C.ar    1  UNL1        0.1132
      4 N         143.2640  141.5002  161.0382 N.ar    1  UNL1       -0.2256
      5 C         142.6631  142.4165  162.0627 C.ar    1  UNL1        0.1438
      6 N         142.0969  143.6060  161.3454 N.ar    1  UNL1       -0.3106
      7 C         142.6337  142.1841  163.5443 C.ar    1  UNL1        0.0342
      8 C         143.6583  142.8343  164.4260 C.ar    1  UNL1        0.0031
      9 C         143.6289  142.6018  165.9075 C.ar    1  UNL1        0.0031
     10 C         142.5748  141.7191  166.5074 C.ar    1  UNL1        0.0346
     11 C         141.5503  141.0689  165.6257 C.ar    1  UNL1        0.0031
     12 C         141.5797  141.3014  164.1442 C.ar    1  UNL1        0.0031
     13 C         142.5454  141.4867  167.9890 C.ar    1  UNL1        0.1454
     14 C         142.6792  140.1601  168.6762 C.ar    1  UNL1        0.0407
     15 C         142.5935  140.3935  170.1554 C.ar    1  UNL1        0.0438
     16 C         142.4069  141.8644  170.3825 C.ar    1  UNL1        0.1796
     17 O         142.3772  142.5400  169.0436 O.2     1  UNL1       -0.4504
     18 C         141.4018  144.7719  161.9837 C.3     1  UNL1        0.1369
     19 C         140.2065  144.5442  162.8606 C.ar    1  UNL1        0.0344
     20 C         140.2902  144.8279  164.3312 C.ar    1  UNL1        0.0006
     21 C         139.0949  144.6002  165.2082 C.ar    1  UNL1       -0.0001
     22 C         137.8157  144.0887  164.6148 C.ar    1  UNL1        0.0031
     23 C         137.7320  143.8050  163.1443 C.ar    1  UNL1        0.0366
     24 C         138.9273  144.0327  162.2672 C.ar    1  UNL1        0.1363
     25 O         138.8436  143.7490  160.7967 O.3     1  UNL1       -0.4757
     26 C         138.5149  142.3662  160.3172 C.3     1  UNL1        0.2054
     27 C         139.2171  141.1804  160.9095 C.3     1  UNL1        0.0473
     28 C         138.5323  140.3467  161.9516 C.3     1  UNL1        0.0042
     29 C         138.8397  138.8828  162.0620 C.3     1  UNL1        0.0060
     30 C         139.4058  138.3293  163.3361 C.3     1  UNL1        0.0417
     31 C         140.6626  137.5109  163.3051 C.2     1  UNL1        0.0503
     32 O         141.3839  137.2930  162.0082 O.co2   1  UNL1       -0.5492
     33 O         141.1978  136.9103  164.5711 O.co2   1  UNL1       -0.5492
@<TRIPOS>UNITY_ATOM_ATTR
32 1
charge -1
@<TRIPOS>BOND
     1     1     2    1
     2     2     3   ar
     3     3     4   ar
     4     4     5   ar
     5     5     7    1
     6     7     8   ar
     7     8     9   ar
     8     9    10   ar
     9    10    13    1
    10    13    14   ar
    11    14    15   ar
    12    15    16   ar
    13    16    17   ar
    14    10    11   ar
    15    11    12   ar
    16     5     6   ar
    17     6    18    1
    18    18    19    1
    19    19    20   ar
    20    20    21   ar
    21    21    22   ar
    22    22    23   ar
    23    23    24   ar
    24    24    25    1
    25    25    26    1
    26    26    27    1
    27    27    28    1
    28    28    29    1
    29    29    30    1
    30    30    31    1
    31    31    32   ar
    32    31    33   ar
    33     6     2   ar
    34    24    19   ar
    35    12     7   ar
    36    17    13   ar
@<TRIPOS>MOLECULE
*****
 33 36 0 0 0
SMALL
GASTEIGER

@<TRIPOS>ATOM
      1 C         143.9634  140.5476  159.3241 C.3     1  UNL1        0.0517
      2 C         143.8858  141.3675  160.5779 C.ar    1  UNL1        0.0582
      3 C         144.4941  142.7231  160.7839 C.ar    1  UNL1        0.1132
      4 N         144.1705  143.1691  162.1790 N.ar    1  UNL1       -0.2256
      5 C         143.3624  142.0891  162.8352 C.ar    1  UNL1        0.1438
      6 N         143.1864  140.9757  161.8457 N.ar    1  UNL1       -0.3106
      7 C         142.8246  142.1176  164.2353 C.ar    1  UNL1        0.0342
      8 C         143.3835  141.1893  165.2724 C.ar    1  UNL1        0.0031
      9 C         142.8457  141.2178  166.6724 C.ar    1  UNL1        0.0031
     10 C         141.7490  142.1747  167.0352 C.ar    1  UNL1        0.0346
     11 C         141.1902  143.1031  165.9981 C.ar    1  UNL1        0.0031
     12 C         141.7279  143.0746  164.5981 C.ar    1  UNL1        0.0031
     13 C         141.2113  142.2033  168.4353 C.ar    1  UNL1        0.1454
     14 C         140.4107  143.3130  169.0498 C.ar    1  UNL1        0.0407
     15 C         140.0843  142.9227  170.4609 C.ar    1  UNL1        0.0438
     16 C         140.6831  141.5717  170.7184 C.ar    1  UNL1        0.1796
     17 O         141.3796  141.1271  169.4665 O.2     1  UNL1       -0.4504
     18 C         142.4418  139.6952  162.0823 C.3     1  UNL1        0.1369
     19 C         141.0289  139.5491  161.6005 C.ar    1  UNL1        0.0344
     20 C         140.3459  140.6984  160.9202 C.ar    1  UNL1        0.0006
     21 C         138.9330  140.5524  160.4383 C.ar    1  UNL1       -0.0001
     22 C         138.2029  139.2572  160.6368 C.ar    1  UNL1        0.0031
     23 C         138.8859  138.1079  161.3171 C.ar    1  UNL1        0.0366
     24 C         140.2989  138.2539  161.7990 C.ar    1  UNL1        0.1363
     25 O         140.9818  137.1047  162.4793 O.3     1  UNL1       -0.4757
     26 C         141.0417  137.0480  163.9770 C.3     1  UNL1        0.2054
     27 C         139.8945  137.5651  164.7935 C.3     1  UNL1        0.0473
     28 C         140.0203  138.8707  165.5212 C.3     1  UNL1        0.0042
     29 C         139.5966  140.1453  164.8534 C.3     1  UNL1        0.0060
     30 C         138.1805  140.3136  164.3885 C.3     1  UNL1        0.0417
     31 C         137.6913  141.6612  163.9468 C.2     1  UNL1        0.0503
     32 O         138.0599  142.8864  164.7295 O.co2   1  UNL1       -0.5492
     33 O         136.8335  141.7832  162.7224 O.co2   1  UNL1       -0.5492
@<TRIPOS>UNITY_ATOM_ATTR
32 1
charge -1
@<TRIPOS>BOND
     1     1     2    1
     2     2     3   ar
     3     3     4   ar
     4     4     5   ar
     5     5     7    1
     6     7     8   ar
     7     8     9   ar
     8     9    10   ar
     9    10    13    1
    10    13    14   ar
    11    14    15   ar
    12    15    16   ar
    13    16    17   ar
    14    10    11   ar
    15    11    12   ar
    16     5     6   ar
    17     6    18    1
    18    18    19    1
    19    19    20   ar
    20    20    21   ar
    21    21    22   ar
    22    22    23   ar
    23    23    24   ar
    24    24    25    1
    25    25    26    1
    26    26    27    1
    27    27    28    1
    28    28    29    1
    29    29    30    1
    30    30    31    1
    31    31    32   ar
    32    31    33   ar
    33     6     2   ar
    34    24    19   ar
    35    12     7   ar
    36    17    13   ar
