@<TRIPOS>MOLECULE
*****
 28 31 0 0 0
SMALL
GASTEIGER

@<TRIPOS>ATOM
      1 C         137.6021  138.5735  166.9520 C.3     1  UNL1        0.0340
      2 C         138.9268  139.2749  167.0093 C.ar    1  UNL1        0.0125
      3 C         139.5302  139.9220  168.2206 C.ar    1  UNL1        0.0923
      4 N         140.8569  140.4993  167.8251 N.ar    1  UNL1       -0.1684
      5 N         141.0735  140.2091  166.3695 N.ar    1  UNL1       -0.2294
      6 C         139.8806  139.4523  165.8653 C.ar    1  UNL1        0.0815
      7 C         142.2725  140.6059  165.5602 C.ar    1  UNL1        0.0933
      8 C         142.3230  141.9550  164.9064 C.ar    1  UNL1        0.0209
      9 C         143.5219  142.3519  164.0971 C.ar    1  UNL1        0.0130
     10 C         144.6704  141.3996  163.9416 C.ar    1  UNL1        0.0586
     11 CL        145.8695  141.7965  163.1323 Cl      1  UNL1       -0.0822
     12 C         144.6200  140.0506  164.5954 C.ar    1  UNL1        0.0243
     13 C         143.4210  139.6537  165.4047 C.ar    1  UNL1        0.0761
     14 CL        143.3706  138.3046  166.0585 Cl      1  UNL1       -0.0806
     15 C         139.6772  138.9595  164.4632 C.ar    1  UNL1        0.0366
     16 C         138.6625  139.6182  163.5764 C.ar    1  UNL1        0.0046
     17 C         138.4591  139.1254  162.1744 C.ar    1  UNL1        0.0207
     18 C         139.2704  137.9738  161.6591 C.ar    1  UNL1        0.0989
     19 N         140.2851  137.3150  162.5459 N.ar    1  UNL1       -0.2423
     20 C         140.4886  137.8078  163.9480 C.ar    1  UNL1        0.1003
     21 C         138.9149  139.9813  169.5873 C.3     1  UNL1        0.1166
     22 N         139.7150  140.4929  170.7484 N.3     1  UNL1       -0.2935
     23 H         140.3465  139.7412  171.0248 H       1  UNL1        0.1236
     24 C         140.5524  141.7280  170.5960 C.3     1  UNL1        0.0543
     25 C         142.0359  141.8180  170.7993 C.3     1  UNL1        0.0157
     26 C         142.4537  143.2356  170.5425 C.3     1  UNL1        0.0014
     27 C         141.2286  144.0216  170.1805 C.3     1  UNL1        0.0014
     28 C         140.0535  143.0899  170.2136 C.3     1  UNL1        0.0157
@<TRIPOS>BOND
     1     1     2    1
     2     2     3   ar
     3     3    21    1
     4    21    22    1
     5    22    24    1
     6    24    25    1
     7    25    26    1
     8    26    27    1
     9    27    28    1
    10     3     4   ar
    11     4     5   ar
    12     5     7    1
    13     7     8   ar
    14     8     9   ar
    15     9    10   ar
    16    10    11    1
    17    10    12   ar
    18    12    13   ar
    19    13    14    1
    20     5     6   ar
    21     6    15    1
    22    15    16   ar
    23    16    17   ar
    24    17    18   ar
    25    18    19   ar
    26    19    20   ar
    27     6     2   ar
    28    20    15   ar
    29    28    24    1
    30    13     7   ar
    31    22    23    1
@<TRIPOS>MOLECULE
*****
 28 31 0 0 0
SMALL
GASTEIGER

@<TRIPOS>ATOM
      1 C         142.9539  144.3942  163.3128 C.3     1  UNL1        0.0340
      2 C         142.6973  143.0922  164.0122 C.ar    1  UNL1        0.0125
      3 C         143.7419  142.1315  164.4980 C.ar    1  UNL1        0.0923
      4 N         143.0413  140.9680  165.1345 N.ar    1  UNL1       -0.1684
      5 N         141.5637  141.2096  165.0422 N.ar    1  UNL1       -0.2294
      6 C         141.3512  142.5224  164.3485 C.ar    1  UNL1        0.0815
      7 C         140.4876  140.2982  165.5537 C.ar    1  UNL1        0.0933
      8 C         139.9808  139.1792  164.6931 C.ar    1  UNL1        0.0209
      9 C         138.9047  138.2679  165.2045 C.ar    1  UNL1        0.0130
     10 C         138.3356  138.4756  166.5767 C.ar    1  UNL1        0.0586
     11 CL        137.2595  137.5643  167.0882 Cl      1  UNL1       -0.0822
     12 C         138.8424  139.5947  167.4374 C.ar    1  UNL1        0.0243
     13 C         139.9185  140.5060  166.9259 C.ar    1  UNL1        0.0761
     14 CL        140.4253  141.6251  167.7866 Cl      1  UNL1       -0.0806
     15 C         140.0253  143.1546  164.0446 C.ar    1  UNL1        0.0366
     16 C         139.2454  143.8239  165.1371 C.ar    1  UNL1        0.0046
     17 C         137.9195  144.4561  164.8331 C.ar    1  UNL1        0.0207
     18 C         137.3734  144.4188  163.4366 C.ar    1  UNL1        0.0989
     19 N         138.1534  143.7494  162.3440 N.ar    1  UNL1       -0.2423
     20 C         139.4792  143.1173  162.6479 C.ar    1  UNL1        0.1003
     21 C         145.2264  142.3040  164.3697 C.3     1  UNL1        0.1166
     22 N         145.9130  141.9587  163.0815 N.3     1  UNL1       -0.2935
     23 H         146.5015  141.1471  163.2699 H       1  UNL1        0.1236
     24 C         145.1013  141.6315  161.8633 C.3     1  UNL1        0.0543
     25 C         144.8313  142.5523  160.7103 C.3     1  UNL1        0.0157
     26 C         143.9803  141.8161  159.7185 C.3     1  UNL1        0.0014
     27 C         143.7243  140.4402  160.2585 C.3     1  UNL1        0.0014
     28 C         144.4172  140.3262  161.5840 C.3     1  UNL1        0.0157
@<TRIPOS>BOND
     1     1     2    1
     2     2     3   ar
     3     3    21    1
     4    21    22    1
     5    22    24    1
     6    24    25    1
     7    25    26    1
     8    26    27    1
     9    27    28    1
    10     3     4   ar
    11     4     5   ar
    12     5     7    1
    13     7     8   ar
    14     8     9   ar
    15     9    10   ar
    16    10    11    1
    17    10    12   ar
    18    12    13   ar
    19    13    14    1
    20     5     6   ar
    21     6    15    1
    22    15    16   ar
    23    16    17   ar
    24    17    18   ar
    25    18    19   ar
    26    19    20   ar
    27     6     2   ar
    28    20    15   ar
    29    28    24    1
    30    13     7   ar
    31    22    23    1
@<TRIPOS>MOLECULE
*****
 28 31 0 0 0
SMALL
GASTEIGER

@<TRIPOS>ATOM
      1 C         140.5583  140.4273  169.6210 C.3     1  UNL1        0.0340
      2 C         141.5478  139.8587  168.6476 C.ar    1  UNL1        0.0125
      3 C         142.7222  138.9905  168.9899 C.ar    1  UNL1        0.0923
      4 N         143.4369  138.6538  167.7149 N.ar    1  UNL1       -0.1684
      5 N         142.7043  139.3139  166.5846 N.ar    1  UNL1       -0.2294
      6 C         141.5368  140.0586  167.1610 C.ar    1  UNL1        0.0815
      7 C         143.0743  139.2419  165.1326 C.ar    1  UNL1        0.0933
      8 C         144.1380  140.1460  164.5840 C.ar    1  UNL1        0.0209
      9 C         144.5080  140.0741  163.1322 C.ar    1  UNL1        0.0130
     10 C         143.8143  139.0979  162.2290 C.ar    1  UNL1        0.0586
     11 CL        144.1843  139.0259  160.7770 Cl      1  UNL1       -0.0822
     12 C         142.7506  138.1938  162.7776 C.ar    1  UNL1        0.0243
     13 C         142.3806  138.2657  164.2294 C.ar    1  UNL1        0.0761
     14 CL        141.3168  137.3615  164.7780 Cl      1  UNL1       -0.0806
     15 C         140.5343  140.8621  166.3869 C.ar    1  UNL1        0.0366
     16 C         139.3445  140.1860  165.7726 C.ar    1  UNL1        0.0046
     17 C         138.3420  140.9895  164.9985 C.ar    1  UNL1        0.0207
     18 C         138.5292  142.4692  164.8386 C.ar    1  UNL1        0.0989
     19 N         139.7190  143.1452  165.4529 N.ar    1  UNL1       -0.2423
     20 C         140.7216  142.3418  166.2270 C.ar    1  UNL1        0.1003
     21 C         143.1131  138.5384  170.3657 C.3     1  UNL1        0.1166
     22 N         143.2398  137.0743  170.6663 N.3     1  UNL1       -0.2935
     23 H         143.2350  136.5881  169.7696 H       1  UNL1        0.1236
     24 C         144.4271  136.5652  171.4286 C.3     1  UNL1        0.0543
     25 C         144.7092  135.1311  171.7663 C.3     1  UNL1        0.0157
     26 C         145.9972  135.0804  172.5335 C.3     1  UNL1        0.0014
     27 C         146.5111  136.4830  172.6699 C.3     1  UNL1        0.0014
     28 C         145.5407  137.4006  171.9870 C.3     1  UNL1        0.0157
@<TRIPOS>BOND
     1     1     2    1
     2     2     3   ar
     3     3    21    1
     4    21    22    1
     5    22    24    1
     6    24    25    1
     7    25    26    1
     8    26    27    1
     9    27    28    1
    10     3     4   ar
    11     4     5   ar
    12     5     7    1
    13     7     8   ar
    14     8     9   ar
    15     9    10   ar
    16    10    11    1
    17    10    12   ar
    18    12    13   ar
    19    13    14    1
    20     5     6   ar
    21     6    15    1
    22    15    16   ar
    23    16    17   ar
    24    17    18   ar
    25    18    19   ar
    26    19    20   ar
    27     6     2   ar
    28    20    15   ar
    29    28    24    1
    30    13     7   ar
    31    22    23    1
@<TRIPOS>MOLECULE
*****
 28 31 0 0 0
SMALL
GASTEIGER

@<TRIPOS>ATOM
      1 C         137.6423  141.9039  163.5407 C.3     1  UNL1        0.0340
      2 C         138.7021  142.2013  164.5597 C.ar    1  UNL1        0.0125
      3 C         139.4265  143.5046  164.7239 C.ar    1  UNL1        0.0923
      4 N         140.3957  143.3563  165.8590 N.ar    1  UNL1       -0.1684
      5 N         140.2704  141.9615  166.3964 N.ar    1  UNL1       -0.2294
      6 C         139.2237  141.2476  165.5934 C.ar    1  UNL1        0.0815
      7 C         141.0542  141.3822  167.5367 C.ar    1  UNL1        0.0933
      8 C         141.8337  140.1153  167.3439 C.ar    1  UNL1        0.0209
      9 C         142.6175  139.5360  168.4841 C.ar    1  UNL1        0.0130
     10 C         142.6218  140.2237  169.8171 C.ar    1  UNL1        0.0586
     11 CL        143.4056  139.6445  170.9574 Cl      1  UNL1       -0.0822
     12 C         141.8423  141.4907  170.0099 C.ar    1  UNL1        0.0243
     13 C         141.0585  142.0699  168.8697 C.ar    1  UNL1        0.0761
     14 CL        140.2790  143.3369  169.0626 Cl      1  UNL1       -0.0806
     15 C         138.7771  139.8292  165.7895 C.ar    1  UNL1        0.0366
     16 C         137.8688  139.4799  166.9310 C.ar    1  UNL1        0.0046
     17 C         137.4222  138.0614  167.1271 C.ar    1  UNL1        0.0207
     18 C         137.8838  136.9922  166.1818 C.ar    1  UNL1        0.0989
     19 N         138.7921  137.3416  165.0403 N.ar    1  UNL1       -0.2423
     20 C         139.2387  138.7600  164.8441 C.ar    1  UNL1        0.1003
     21 C         139.2181  144.7392  163.8979 C.3     1  UNL1        0.1166
     22 N         140.3791  145.6348  163.5818 N.3     1  UNL1       -0.2935
     23 H         140.5839  146.1621  164.4306 H       1  UNL1        0.1236
     24 C         141.6766  145.0442  163.1153 C.3     1  UNL1        0.0543
     25 C         143.0208  145.2604  163.7451 C.3     1  UNL1        0.0157
     26 C         144.0327  144.4834  162.9562 C.3     1  UNL1        0.0014
     27 C         143.3140  143.7871  161.8388 C.3     1  UNL1        0.0014
     28 C         141.8579  144.1336  161.9372 C.3     1  UNL1        0.0157
@<TRIPOS>BOND
     1     1     2    1
     2     2     3   ar
     3     3    21    1
     4    21    22    1
     5    22    24    1
     6    24    25    1
     7    25    26    1
     8    26    27    1
     9    27    28    1
    10     3     4   ar
    11     4     5   ar
    12     5     7    1
    13     7     8   ar
    14     8     9   ar
    15     9    10   ar
    16    10    11    1
    17    10    12   ar
    18    12    13   ar
    19    13    14    1
    20     5     6   ar
    21     6    15    1
    22    15    16   ar
    23    16    17   ar
    24    17    18   ar
    25    18    19   ar
    26    19    20   ar
    27     6     2   ar
    28    20    15   ar
    29    28    24    1
    30    13     7   ar
    31    22    23    1
@<TRIPOS>MOLECULE
*****
 28 31 0 0 0
SMALL
GASTEIGER

@<TRIPOS>ATOM
      1 C         137.5718  138.4031  167.2082 C.3     1  UNL1        0.0340
      2 C         138.6244  139.4620  167.0639 C.ar    1  UNL1        0.0125
      3 C         139.3430  140.1497  168.1868 C.ar    1  UNL1        0.0923
      4 N         140.3058  141.1319  167.5883 N.ar    1  UNL1       -0.1684
      5 N         140.1823  141.0513  166.0956 N.ar    1  UNL1       -0.2294
      6 C         139.1431  140.0193  165.7715 C.ar    1  UNL1        0.0815
      7 C         140.9612  141.8607  165.1015 C.ar    1  UNL1        0.0933
      8 C         142.1060  141.2373  164.3592 C.ar    1  UNL1        0.0209
      9 C         142.8849  142.0466  163.3652 C.ar    1  UNL1        0.0130
     10 C         142.5191  143.4793  163.1133 C.ar    1  UNL1        0.0586
     11 CL        143.2981  144.2887  162.1192 Cl      1  UNL1       -0.0822
     12 C         141.3744  144.1027  163.8556 C.ar    1  UNL1        0.0243
     13 C         140.5954  143.2934  164.8497 C.ar    1  UNL1        0.0761
     14 CL        139.4507  143.9168  165.5919 Cl      1  UNL1       -0.0806
     15 C         138.7004  139.6154  164.3964 C.ar    1  UNL1        0.0366
     16 C         139.0261  138.2472  163.8752 C.ar    1  UNL1        0.0046
     17 C         138.5833  137.8433  162.5001 C.ar    1  UNL1        0.0207
     18 C         137.8148  138.8078  161.6462 C.ar    1  UNL1        0.0989
     19 N         137.4891  140.1761  162.1674 N.ar    1  UNL1       -0.2423
     20 C         137.9318  140.5800  163.5425 C.ar    1  UNL1        0.1003
     21 C         139.1352  139.8990  169.6511 C.3     1  UNL1        0.1166
     22 N         140.3168  139.7967  170.5695 N.3     1  UNL1       -0.2935
     23 H         140.7201  138.8705  170.4284 H       1  UNL1        0.1236
     24 C         141.4427  140.7812  170.4556 C.3     1  UNL1        0.0543
     25 C         141.3804  142.2371  170.8117 C.3     1  UNL1        0.0157
     26 C         142.7278  142.8384  170.5418 C.3     1  UNL1        0.0014
     27 C         143.6228  141.7543  170.0188 C.3     1  UNL1        0.0014
     28 C         142.8286  140.4829  169.9655 C.3     1  UNL1        0.0157
@<TRIPOS>BOND
     1     1     2    1
     2     2     3   ar
     3     3    21    1
     4    21    22    1
     5    22    24    1
     6    24    25    1
     7    25    26    1
     8    26    27    1
     9    27    28    1
    10     3     4   ar
    11     4     5   ar
    12     5     7    1
    13     7     8   ar
    14     8     9   ar
    15     9    10   ar
    16    10    11    1
    17    10    12   ar
    18    12    13   ar
    19    13    14    1
    20     5     6   ar
    21     6    15    1
    22    15    16   ar
    23    16    17   ar
    24    17    18   ar
    25    18    19   ar
    26    19    20   ar
    27     6     2   ar
    28    20    15   ar
    29    28    24    1
    30    13     7   ar
    31    22    23    1
@<TRIPOS>MOLECULE
*****
 28 31 0 0 0
SMALL
GASTEIGER

@<TRIPOS>ATOM
      1 C         143.9473  137.7380  166.9195 C.3     1  UNL1        0.0340
      2 C         142.9132  138.8235  166.8723 C.ar    1  UNL1        0.0125
      3 C         142.3945  139.5989  168.0471 C.ar    1  UNL1        0.0923
      4 N         141.3769  140.5788  167.5429 N.ar    1  UNL1       -0.1684
      5 N         141.2666  140.4091  166.0566 N.ar    1  UNL1       -0.2294
      6 C         142.2161  139.3243  165.6422 C.ar    1  UNL1        0.0815
      7 C         140.3651  141.1875  165.1448 C.ar    1  UNL1        0.0933
      8 C         140.9138  142.3324  164.3459 C.ar    1  UNL1        0.0209
      9 C         140.0124  143.1109  163.4341 C.ar    1  UNL1        0.0130
     10 C         138.5622  142.7445  163.3212 C.ar    1  UNL1        0.0586
     11 CL        137.6607  143.5229  162.4094 Cl      1  UNL1       -0.0822
     12 C         138.0135  141.5996  164.1201 C.ar    1  UNL1        0.0243
     13 C         138.9150  140.8211  165.0319 C.ar    1  UNL1        0.0761
     14 CL        138.3663  139.6763  165.8308 Cl      1  UNL1       -0.0806
     15 C         142.4308  138.8274  164.2432 C.ar    1  UNL1        0.0366
     16 C         143.6736  139.2079  163.4946 C.ar    1  UNL1        0.0046
     17 C         143.8883  138.7111  162.0957 C.ar    1  UNL1        0.0207
     18 C         142.8601  137.8337  161.4453 C.ar    1  UNL1        0.0989
     19 N         141.6172  137.4531  162.1940 N.ar    1  UNL1       -0.2423
     20 C         141.4025  137.9500  163.5929 C.ar    1  UNL1        0.1003
     21 C         142.8190  139.4248  169.4752 C.3     1  UNL1        0.1166
     22 N         142.9478  140.6215  170.3704 N.3     1  UNL1       -0.2935
     23 H         143.8302  141.0741  170.1318 H       1  UNL1        0.1236
     24 C         141.8944  141.6891  170.3515 C.3     1  UNL1        0.0543
     25 C         142.0674  143.0896  169.8426 C.3     1  UNL1        0.0157
     26 C         140.7630  143.8098  170.0147 C.3     1  UNL1        0.0014
     27 C         139.7837  142.8545  170.6299 C.3     1  UNL1        0.0014
     28 C         140.4830  141.5439  170.8381 C.3     1  UNL1        0.0157
@<TRIPOS>BOND
     1     1     2    1
     2     2     3   ar
     3     3    21    1
     4    21    22    1
     5    22    24    1
     6    24    25    1
     7    25    26    1
     8    26    27    1
     9    27    28    1
    10     3     4   ar
    11     4     5   ar
    12     5     7    1
    13     7     8   ar
    14     8     9   ar
    15     9    10   ar
    16    10    11    1
    17    10    12   ar
    18    12    13   ar
    19    13    14    1
    20     5     6   ar
    21     6    15    1
    22    15    16   ar
    23    16    17   ar
    24    17    18   ar
    25    18    19   ar
    26    19    20   ar
    27     6     2   ar
    28    20    15   ar
    29    28    24    1
    30    13     7   ar
    31    22    23    1
@<TRIPOS>MOLECULE
*****
 28 31 0 0 0
SMALL
GASTEIGER

@<TRIPOS>ATOM
      1 C         140.3083  140.9554  170.0923 C.3     1  UNL1        0.0340
      2 C         139.5061  140.2589  169.0333 C.ar    1  UNL1        0.0125
      3 C         138.2170  139.5219  169.2456 C.ar    1  UNL1        0.0923
      4 N         137.7664  138.9848  167.9195 N.ar    1  UNL1       -0.1684
      5 N         138.7771  139.3898  166.8877 N.ar    1  UNL1       -0.2294
      6 C         139.8523  140.1772  167.5761 C.ar    1  UNL1        0.0815
      7 C         138.7222  139.0644  165.4244 C.ar    1  UNL1        0.0933
      8 C         139.0553  137.6806  164.9508 C.ar    1  UNL1        0.0209
      9 C         139.0004  137.3552  163.4876 C.ar    1  UNL1        0.0130
     10 C         138.6123  138.4135  162.4980 C.ar    1  UNL1        0.0586
     11 CL        138.5574  138.0881  161.0347 Cl      1  UNL1       -0.0822
     12 C         138.2792  139.7972  162.9716 C.ar    1  UNL1        0.0243
     13 C         138.3341  140.1227  164.4348 C.ar    1  UNL1        0.0761
     14 CL        138.0009  141.5064  164.9084 Cl      1  UNL1       -0.0806
     15 C         141.0613  140.7776  166.9221 C.ar    1  UNL1        0.0366
     16 C         142.2071  139.8998  166.5142 C.ar    1  UNL1        0.0046
     17 C         143.4162  140.5002  165.8602 C.ar    1  UNL1        0.0207
     18 C         143.4794  141.9785  165.6141 C.ar    1  UNL1        0.0989
     19 N         142.3335  142.8564  166.0220 N.ar    1  UNL1       -0.2423
     20 C         141.1245  142.2560  166.6760 C.ar    1  UNL1        0.1003
     21 C         137.5037  139.3520  170.5541 C.3     1  UNL1        0.1166
     22 N         136.3151  138.4418  170.6476 N.3     1  UNL1       -0.2935
     23 H         136.4091  137.7567  169.8979 H       1  UNL1        0.1236
     24 C         136.0579  137.6713  171.9086 C.3     1  UNL1        0.0543
     25 C         134.9551  137.9316  172.8916 C.3     1  UNL1        0.0157
     26 C         135.0740  136.9264  173.9986 C.3     1  UNL1        0.0014
     27 C         136.2502  136.0448  173.6998 C.3     1  UNL1        0.0014
     28 C         136.8583  136.5052  172.4081 C.3     1  UNL1        0.0157
@<TRIPOS>BOND
     1     1     2    1
     2     2     3   ar
     3     3    21    1
     4    21    22    1
     5    22    24    1
     6    24    25    1
     7    25    26    1
     8    26    27    1
     9    27    28    1
    10     3     4   ar
    11     4     5   ar
    12     5     7    1
    13     7     8   ar
    14     8     9   ar
    15     9    10   ar
    16    10    11    1
    17    10    12   ar
    18    12    13   ar
    19    13    14    1
    20     5     6   ar
    21     6    15    1
    22    15    16   ar
    23    16    17   ar
    24    17    18   ar
    25    18    19   ar
    26    19    20   ar
    27     6     2   ar
    28    20    15   ar
    29    28    24    1
    30    13     7   ar
    31    22    23    1
@<TRIPOS>MOLECULE
*****
 28 31 0 0 0
SMALL
GASTEIGER

@<TRIPOS>ATOM
      1 C         140.5251  140.5083  162.0602 C.3     1  UNL1        0.0340
      2 C         140.9174  140.1971  163.4742 C.ar    1  UNL1        0.0125
      3 C         141.8186  139.0816  163.9140 C.ar    1  UNL1        0.0923
      4 N         141.9354  139.1419  165.4082 N.ar    1  UNL1       -0.1684
      5 N         141.1064  140.2947  165.8919 N.ar    1  UNL1       -0.2294
      6 C         140.4772  140.9469  164.6965 C.ar    1  UNL1        0.0815
      7 C         140.9365  140.7205  167.3201 C.ar    1  UNL1        0.0933
      8 C         141.9582  141.6100  167.9642 C.ar    1  UNL1        0.0209
      9 C         141.7884  142.0358  169.3924 C.ar    1  UNL1        0.0130
     10 C         140.5967  141.5722  170.1765 C.ar    1  UNL1        0.0586
     11 CL        140.4267  141.9981  171.6047 Cl      1  UNL1       -0.0822
     12 C         139.5749  140.6828  169.5324 C.ar    1  UNL1        0.0243
     13 C         139.7448  140.2569  168.1042 C.ar    1  UNL1        0.0761
     14 CL        138.7230  139.3675  167.4602 Cl      1  UNL1       -0.0806
     15 C         139.5677  142.1394  164.7195 C.ar    1  UNL1        0.0366
     16 C         140.1241  143.5017  165.0100 C.ar    1  UNL1        0.0046
     17 C         139.2145  144.6942  165.0330 C.ar    1  UNL1        0.0207
     18 C         137.7483  144.5244  164.7654 C.ar    1  UNL1        0.0989
     19 N         137.1919  143.1620  164.4749 N.ar    1  UNL1       -0.2423
     20 C         138.1014  141.9695  164.4520 C.ar    1  UNL1        0.1003
     21 C         142.4858  138.0814  163.0171 C.3     1  UNL1        0.1166
     22 N         143.8183  138.3952  162.4042 N.3     1  UNL1       -0.2935
     23 H         143.7024  138.3208  161.3935 H       1  UNL1        0.1236
     24 C         144.4725  139.7189  162.6687 C.3     1  UNL1        0.0543
     25 C         145.2299  140.0962  163.9073 C.3     1  UNL1        0.0157
     26 C         145.7096  141.5082  163.7452 C.3     1  UNL1        0.0014
     27 C         145.2486  142.0035  162.4065 C.3     1  UNL1        0.0014
     28 C         144.4840  140.8977  161.7412 C.3     1  UNL1        0.0157
@<TRIPOS>BOND
     1     1     2    1
     2     2     3   ar
     3     3    21    1
     4    21    22    1
     5    22    24    1
     6    24    25    1
     7    25    26    1
     8    26    27    1
     9    27    28    1
    10     3     4   ar
    11     4     5   ar
    12     5     7    1
    13     7     8   ar
    14     8     9   ar
    15     9    10   ar
    16    10    11    1
    17    10    12   ar
    18    12    13   ar
    19    13    14    1
    20     5     6   ar
    21     6    15    1
    22    15    16   ar
    23    16    17   ar
    24    17    18   ar
    25    18    19   ar
    26    19    20   ar
    27     6     2   ar
    28    20    15   ar
    29    28    24    1
    30    13     7   ar
    31    22    23    1
@<TRIPOS>MOLECULE
*****
 28 31 0 0 0
SMALL
GASTEIGER

@<TRIPOS>ATOM
      1 C         141.2205  143.8261  162.2304 C.3     1  UNL1        0.0340
      2 C         140.8926  143.5270  163.6632 C.ar    1  UNL1        0.0125
      3 C         139.6834  144.0073  164.4098 C.ar    1  UNL1        0.0923
      4 N         139.7597  143.4722  165.8090 N.ar    1  UNL1       -0.1684
      5 N         141.0160  142.6611  165.9272 N.ar    1  UNL1       -0.2294
      6 C         141.7161  142.6950  164.6011 C.ar    1  UNL1        0.0815
      7 C         141.4891  141.9424  167.1559 C.ar    1  UNL1        0.0933
      8 C         142.6781  142.4547  167.9134 C.ar    1  UNL1        0.0209
      9 C         143.1512  141.7360  169.1421 C.ar    1  UNL1        0.0130
     10 C         142.4353  140.5051  169.6132 C.ar    1  UNL1        0.0586
     11 CL        142.9084  139.7863  170.8420 Cl      1  UNL1       -0.0822
     12 C         141.2463  139.9927  168.8558 C.ar    1  UNL1        0.0243
     13 C         140.7732  140.7114  167.6271 C.ar    1  UNL1        0.0761
     14 CL        139.5842  140.1991  166.8696 Cl      1  UNL1       -0.0806
     15 C         143.0122  142.0161  164.2707 C.ar    1  UNL1        0.0366
     16 C         144.2974  142.7878  164.3214 C.ar    1  UNL1        0.0046
     17 C         145.5936  142.1089  163.9910 C.ar    1  UNL1        0.0207
     18 C         145.6045  140.6581  163.6100 C.ar    1  UNL1        0.0989
     19 N         144.3192  139.8864  163.5593 N.ar    1  UNL1       -0.2423
     20 C         143.0231  140.5653  163.8896 C.ar    1  UNL1        0.1003
     21 C         138.5900  144.8711  163.8546 C.3     1  UNL1        0.1166
     22 N         137.6095  144.3012  162.8728 N.3     1  UNL1       -0.2935
     23 H         137.6918  144.8542  162.0197 H       1  UNL1        0.1236
     24 C         137.7066  142.8607  162.4662 C.3     1  UNL1        0.0543
     25 C         138.1662  142.3500  161.1327 C.3     1  UNL1        0.0157
     26 C         138.1048  140.8516  161.1640 C.3     1  UNL1        0.0014
     27 C         137.6073  140.4362  162.5167 C.3     1  UNL1        0.0014
     28 C         137.3612  141.6779  163.3215 C.3     1  UNL1        0.0157
@<TRIPOS>BOND
     1     1     2    1
     2     2     3   ar
     3     3    21    1
     4    21    22    1
     5    22    24    1
     6    24    25    1
     7    25    26    1
     8    26    27    1
     9    27    28    1
    10     3     4   ar
    11     4     5   ar
    12     5     7    1
    13     7     8   ar
    14     8     9   ar
    15     9    10   ar
    16    10    11    1
    17    10    12   ar
    18    12    13   ar
    19    13    14    1
    20     5     6   ar
    21     6    15    1
    22    15    16   ar
    23    16    17   ar
    24    17    18   ar
    25    18    19   ar
    26    19    20   ar
    27     6     2   ar
    28    20    15   ar
    29    28    24    1
    30    13     7   ar
    31    22    23    1
