@<TRIPOS>MOLECULE
*****
 26 28 0 0 0
SMALL
GASTEIGER

@<TRIPOS>ATOM
      1 C         138.8237  139.1824  166.7065 C.ar    1  UNL1        0.1713
      2 N         139.4174  139.7343  167.9686 N.ar    1  UNL1       -0.2211
      3 C         140.4091  140.7940  167.5897 C.ar    1  UNL1        0.0991
      4 C         140.4284  140.8970  166.0934 C.ar    1  UNL1        0.0794
      5 N         139.4486  139.9010  165.5475 N.ar    1  UNL1       -0.3045
      6 C         139.1466  139.6650  164.0973 C.3     1  UNL1        0.1324
      7 C         141.2363  141.6078  168.5403 C.ar    1  UNL1        0.0193
      8 C         142.6647  141.2323  168.8022 C.ar    1  UNL1        0.0038
      9 C         143.4919  142.0461  169.7527 C.ar    1  UNL1        0.0297
     10 C         142.8906  143.2353  170.4413 C.ar    1  UNL1        0.1401
     11 F         143.7179  144.0491  171.3919 F       1  UNL1       -0.2042
     12 C         141.4623  143.6108  170.1794 C.ar    1  UNL1        0.0297
     13 C         140.6351  142.7970  169.2289 C.ar    1  UNL1        0.0038
     14 C         141.2783  141.8319  165.2848 C.ar    1  UNL1        0.0217
     15 C         142.7150  141.4956  165.0148 C.ar    1  UNL1        0.0223
     16 C         143.5649  142.4304  164.2063 C.ar    1  UNL1        0.1004
     17 N         142.9781  143.7015  163.6677 N.ar    1  UNL1       -0.2290
     18 C         141.5414  144.0377  163.9377 C.ar    1  UNL1        0.1342
     19 C         140.6916  143.1029  164.7462 C.ar    1  UNL1        0.0360
     20 N         140.9546  145.3088  163.3991 N.am    1  UNL1       -0.2693
     21 C         140.1396  145.2842  162.1401 C.2     1  UNL1        0.2277
     22 C         139.5528  146.5552  161.6015 C.3     1  UNL1        0.0950
     23 O         139.9114  143.9884  161.4197 O.2     1  UNL1       -0.2747
     24 H         141.1044  146.1592  163.8720 H       1  UNL1        0.1563
     25 C         136.8870  137.8292  167.7872 C.3     1  UNL1        0.0772
     26 S         137.7872  138.1017  166.6187 S.3     1  UNL1       -0.0764
@<TRIPOS>BOND
     1    25    26    1
     2    26     1    1
     3     1     2   ar
     4     2     3   ar
     5     3     7    1
     6     7     8   ar
     7     8     9   ar
     8     9    10   ar
     9    10    11    1
    10    10    12   ar
    11    12    13   ar
    12     3     4   ar
    13     4    14    1
    14    14    15   ar
    15    15    16   ar
    16    16    17   ar
    17    17    18   ar
    18    18    20    1
    19    20    21   am
    20    21    22    1
    21    21    23    2
    22    18    19   ar
    23     4     5   ar
    24     5     6    1
    25     5     1   ar
    26    13     7   ar
    27    19    14   ar
    28    20    24    1
@<TRIPOS>MOLECULE
*****
 26 28 0 0 0
SMALL
GASTEIGER

@<TRIPOS>ATOM
      1 C         138.5751  139.1510  166.7638 C.ar    1  UNL1        0.1713
      2 N         139.3630  139.5965  167.9599 N.ar    1  UNL1       -0.2211
      3 C         140.0783  140.8643  167.5977 C.ar    1  UNL1        0.0991
      4 C         139.7325  141.2023  166.1778 C.ar    1  UNL1        0.0794
      5 N         138.8034  140.1434  165.6624 N.ar    1  UNL1       -0.3045
      6 C         138.2074  140.0869  164.2871 C.3     1  UNL1        0.1324
      7 C         140.9810  141.6553  168.4976 C.ar    1  UNL1        0.0193
      8 C         140.4464  142.8448  169.2386 C.ar    1  UNL1        0.0038
      9 C         141.3491  143.6357  170.1384 C.ar    1  UNL1        0.0297
     10 C         142.7864  143.2370  170.2972 C.ar    1  UNL1        0.1401
     11 F         143.6890  144.0279  171.1970 F       1  UNL1       -0.2042
     12 C         143.3210  142.0474  169.5562 C.ar    1  UNL1        0.0297
     13 C         142.4183  141.2566  168.6564 C.ar    1  UNL1        0.0038
     14 C         140.2285  142.3905  165.4084 C.ar    1  UNL1        0.0217
     15 C         139.3984  143.6380  165.3377 C.ar    1  UNL1        0.0223
     16 C         139.8945  144.8262  164.5682 C.ar    1  UNL1        0.1004
     17 N         141.2205  144.7671  163.8695 N.ar    1  UNL1       -0.2290
     18 C         142.0505  143.5196  163.9403 C.ar    1  UNL1        0.1342
     19 C         141.5545  142.3314  164.7097 C.ar    1  UNL1        0.0360
     20 N         143.3766  143.4604  163.2416 N.am    1  UNL1       -0.2693
     21 C         143.5016  142.7444  161.9295 C.2     1  UNL1        0.2277
     22 C         144.8277  142.6852  161.2308 C.3     1  UNL1        0.0950
     23 O         142.3006  142.0876  161.3161 O.2     1  UNL1       -0.2747
     24 H         144.1648  143.8915  163.6442 H       1  UNL1        0.1563
     25 C         136.7395  137.6218  167.7847 C.3     1  UNL1        0.0772
     26 S         137.7106  137.9278  166.6832 S.3     1  UNL1       -0.0764
@<TRIPOS>BOND
     1    25    26    1
     2    26     1    1
     3     1     2   ar
     4     2     3   ar
     5     3     7    1
     6     7     8   ar
     7     8     9   ar
     8     9    10   ar
     9    10    11    1
    10    10    12   ar
    11    12    13   ar
    12     3     4   ar
    13     4    14    1
    14    14    15   ar
    15    15    16   ar
    16    16    17   ar
    17    17    18   ar
    18    18    20    1
    19    20    21   am
    20    21    22    1
    21    21    23    2
    22    18    19   ar
    23     4     5   ar
    24     5     6    1
    25     5     1   ar
    26    13     7   ar
    27    19    14   ar
    28    20    24    1
@<TRIPOS>MOLECULE
*****
 26 28 0 0 0
SMALL
GASTEIGER

@<TRIPOS>ATOM
      1 C         139.8855  140.6466  169.0529 C.ar    1  UNL1        0.1713
      2 N         139.4413  139.6608  168.0132 N.ar    1  UNL1       -0.2211
      3 C         139.5590  140.3188  166.6704 C.ar    1  UNL1        0.0991
      4 C         140.0760  141.7111  166.8801 C.ar    1  UNL1        0.0794
      5 N         140.2778  141.9137  168.3526 N.ar    1  UNL1       -0.3045
      6 C         140.7831  143.1640  169.0095 C.3     1  UNL1        0.1324
      7 C         139.2194  139.6940  165.3496 C.ar    1  UNL1        0.0193
      8 C         138.2621  140.3789  164.4199 C.ar    1  UNL1        0.0038
      9 C         137.9225  139.7541  163.0993 C.ar    1  UNL1        0.0297
     10 C         138.5403  138.4443  162.7082 C.ar    1  UNL1        0.1401
     11 F         138.2007  137.8195  161.3874 F       1  UNL1       -0.2042
     12 C         139.4977  137.7594  163.6378 C.ar    1  UNL1        0.0297
     13 C         139.8372  138.3842  164.9585 C.ar    1  UNL1        0.0038
     14 C         140.3442  142.7232  165.8060 C.ar    1  UNL1        0.0217
     15 C         139.3154  143.7666  165.4849 C.ar    1  UNL1        0.0223
     16 C         139.5836  144.7786  164.4108 C.ar    1  UNL1        0.1004
     17 N         140.8805  144.7475  163.6578 N.ar    1  UNL1       -0.2290
     18 C         141.9093  143.7042  163.9789 C.ar    1  UNL1        0.1342
     19 C         141.6411  142.6921  165.0530 C.ar    1  UNL1        0.0360
     20 N         143.2062  143.6730  163.2259 N.am    1  UNL1       -0.2693
     21 C         143.3533  142.7906  162.0218 C.2     1  UNL1        0.2277
     22 C         144.6503  142.7594  161.2688 C.3     1  UNL1        0.0950
     23 O         142.2034  141.9395  161.5707 O.2     1  UNL1       -0.2747
     24 H         143.9609  144.2316  163.5220 H       1  UNL1        0.1563
     25 C         141.2278  140.5306  171.2744 C.3     1  UNL1        0.0772
     26 S         139.9296  140.4072  170.5330 S.3     1  UNL1       -0.0764
@<TRIPOS>BOND
     1    25    26    1
     2    26     1    1
     3     1     2   ar
     4     2     3   ar
     5     3     7    1
     6     7     8   ar
     7     8     9   ar
     8     9    10   ar
     9    10    11    1
    10    10    12   ar
    11    12    13   ar
    12     3     4   ar
    13     4    14    1
    14    14    15   ar
    15    15    16   ar
    16    16    17   ar
    17    17    18   ar
    18    18    20    1
    19    20    21   am
    20    21    22    1
    21    21    23    2
    22    18    19   ar
    23     4     5   ar
    24     5     6    1
    25     5     1   ar
    26    13     7   ar
    27    19    14   ar
    28    20    24    1
@<TRIPOS>MOLECULE
*****
 26 28 0 0 0
SMALL
GASTEIGER

@<TRIPOS>ATOM
      1 C         140.2372  140.3137  168.4812 C.ar    1  UNL1        0.1713
      2 N         141.5841  140.8119  168.0483 N.ar    1  UNL1       -0.2211
      3 C         141.7430  140.5089  166.5878 C.ar    1  UNL1        0.0991
      4 C         140.4941  139.8235  166.1181 C.ar    1  UNL1        0.0794
      5 N         139.5635  139.7029  167.2883 N.ar    1  UNL1       -0.3045
      6 C         138.1988  139.0806  167.2690 C.3     1  UNL1        0.1324
      7 C         142.9404  140.8343  165.7449 C.ar    1  UNL1        0.0193
      8 C         143.3441  142.2636  165.5354 C.ar    1  UNL1        0.0038
      9 C         144.5415  142.5889  164.6926 C.ar    1  UNL1        0.0297
     10 C         145.3353  141.4848  164.0594 C.ar    1  UNL1        0.1401
     11 F         146.5327  141.8102  163.2165 F       1  UNL1       -0.2042
     12 C         144.9316  140.0555  164.2689 C.ar    1  UNL1        0.0297
     13 C         143.7342  139.7302  165.1117 C.ar    1  UNL1        0.0038
     14 C         140.2234  139.3431  164.7232 C.ar    1  UNL1        0.0217
     15 C         140.0175  137.8806  164.4604 C.ar    1  UNL1        0.0223
     16 C         139.7468  137.4002  163.0655 C.ar    1  UNL1        0.1004
     17 N         139.6820  138.3820  161.9333 N.ar    1  UNL1       -0.2290
     18 C         139.8879  139.8444  162.1961 C.ar    1  UNL1        0.1342
     19 C         140.1586  140.3248  163.5910 C.ar    1  UNL1        0.0360
     20 N         139.8231  140.8263  161.0640 N.am    1  UNL1       -0.2693
     21 C         138.5842  141.6446  160.8509 C.2     1  UNL1        0.2277
     22 C         138.5194  142.6265  159.7188 C.3     1  UNL1        0.0950
     23 O         137.4100  141.4809  161.7700 O.2     1  UNL1       -0.2747
     24 H         140.5938  140.9337  160.4608 H       1  UNL1        0.1563
     25 C         140.5705  140.6426  171.0368 C.3     1  UNL1        0.0772
     26 S         139.6644  140.4096  169.8642 S.3     1  UNL1       -0.0764
@<TRIPOS>BOND
     1    25    26    1
     2    26     1    1
     3     1     2   ar
     4     2     3   ar
     5     3     7    1
     6     7     8   ar
     7     8     9   ar
     8     9    10   ar
     9    10    11    1
    10    10    12   ar
    11    12    13   ar
    12     3     4   ar
    13     4    14    1
    14    14    15   ar
    15    15    16   ar
    16    16    17   ar
    17    17    18   ar
    18    18    20    1
    19    20    21   am
    20    21    22    1
    21    21    23    2
    22    18    19   ar
    23     4     5   ar
    24     5     6    1
    25     5     1   ar
    26    13     7   ar
    27    19    14   ar
    28    20    24    1
@<TRIPOS>MOLECULE
*****
 26 28 0 0 0
SMALL
GASTEIGER

@<TRIPOS>ATOM
      1 C         142.1178  139.5159  168.5822 C.ar    1  UNL1        0.1713
      2 N         143.0172  139.1412  167.4416 N.ar    1  UNL1       -0.2211
      3 C         142.3422  139.5493  166.1657 C.ar    1  UNL1        0.0991
      4 C         141.0258  140.1762  166.5177 C.ar    1  UNL1        0.0794
      5 N         140.8870  140.1556  168.0111 N.ar    1  UNL1       -0.3045
      6 C         139.7221  140.6821  168.7958 C.3     1  UNL1        0.1324
      7 C         142.8880  139.3632  164.7809 C.ar    1  UNL1        0.0193
      8 C         144.0172  140.2243  164.2978 C.ar    1  UNL1        0.0038
      9 C         144.5629  140.0382  162.9131 C.ar    1  UNL1        0.0297
     10 C         143.9795  138.9909  162.0115 C.ar    1  UNL1        0.1401
     11 F         144.5253  138.8048  160.6267 F       1  UNL1       -0.2042
     12 C         142.8503  138.1298  162.4946 C.ar    1  UNL1        0.0297
     13 C         142.3046  138.3160  163.8794 C.ar    1  UNL1        0.0038
     14 C         140.0239  140.7271  165.5467 C.ar    1  UNL1        0.0217
     15 C         138.9529  139.8374  164.9884 C.ar    1  UNL1        0.0223
     16 C         137.9511  140.3882  164.0175 C.ar    1  UNL1        0.1004
     17 N         138.0200  141.8287  163.6048 N.ar    1  UNL1       -0.2290
     18 C         139.0909  142.7183  164.1631 C.ar    1  UNL1        0.1342
     19 C         140.0928  142.1675  165.1340 C.ar    1  UNL1        0.0360
     20 N         139.1599  144.1588  163.7504 N.am    1  UNL1       -0.2693
     21 C         139.8453  144.5407  162.4720 C.2     1  UNL1        0.2277
     22 C         139.9143  145.9812  162.0593 C.3     1  UNL1        0.0950
     23 O         140.4616  143.4821  161.6062 O.2     1  UNL1       -0.2747
     24 H         138.7554  144.8536  164.3187 H       1  UNL1        0.1563
     25 C         142.7198  140.4540  170.9290 C.3     1  UNL1        0.0772
     26 S         142.3997  139.2905  170.0381 S.3     1  UNL1       -0.0764
@<TRIPOS>BOND
     1    25    26    1
     2    26     1    1
     3     1     2   ar
     4     2     3   ar
     5     3     7    1
     6     7     8   ar
     7     8     9   ar
     8     9    10   ar
     9    10    11    1
    10    10    12   ar
    11    12    13   ar
    12     3     4   ar
    13     4    14    1
    14    14    15   ar
    15    15    16   ar
    16    16    17   ar
    17    17    18   ar
    18    18    20    1
    19    20    21   am
    20    21    22    1
    21    21    23    2
    22    18    19   ar
    23     4     5   ar
    24     5     6    1
    25     5     1   ar
    26    13     7   ar
    27    19    14   ar
    28    20    24    1
@<TRIPOS>MOLECULE
*****
 26 28 0 0 0
SMALL
GASTEIGER

@<TRIPOS>ATOM
      1 C         138.4539  141.7981  158.5586 C.ar    1  UNL1        0.1713
      2 N         138.2761  142.8928  159.5685 N.ar    1  UNL1       -0.2211
      3 C         138.6416  142.3443  160.9159 C.ar    1  UNL1        0.0991
      4 C         139.0453  140.9106  160.7388 C.ar    1  UNL1        0.0794
      5 N         138.9293  140.5730  159.2819 N.ar    1  UNL1       -0.3045
      6 C         139.2350  139.2437  158.6578 C.3     1  UNL1        0.1324
      7 C         138.6090  143.0973  162.2128 C.ar    1  UNL1        0.0193
      8 C         139.5992  144.1948  162.4679 C.ar    1  UNL1        0.0038
      9 C         139.5666  144.9478  163.7648 C.ar    1  UNL1        0.0297
     10 C         138.5439  144.6033  164.8066 C.ar    1  UNL1        0.1401
     11 F         138.5114  145.3564  166.1035 F       1  UNL1       -0.2042
     12 C         137.5537  143.5058  164.5515 C.ar    1  UNL1        0.0297
     13 C         137.5863  142.7529  163.2547 C.ar    1  UNL1        0.0038
     14 C         139.4874  139.9781  161.8273 C.ar    1  UNL1        0.0217
     15 C         138.6374  138.7980  162.1950 C.ar    1  UNL1        0.0223
     16 C         139.0795  137.8655  163.2835 C.ar    1  UNL1        0.1004
     17 N         140.3714  138.1130  164.0045 N.ar    1  UNL1       -0.2290
     18 C         141.2213  139.2931  163.6369 C.ar    1  UNL1        0.1342
     19 C         140.7792  140.2256  162.5483 C.ar    1  UNL1        0.0360
     20 N         142.5132  139.5407  164.3578 N.am    1  UNL1       -0.2693
     21 C         143.8084  139.0857  163.7534 C.2     1  UNL1        0.2277
     22 C         145.1003  139.3333  164.4743 C.3     1  UNL1        0.0950
     23 O         143.8117  138.3830  162.4281 O.2     1  UNL1       -0.2747
     24 H         142.5109  140.0019  165.2276 H       1  UNL1        0.1563
     25 C         136.9626  141.3073  156.4885 C.3     1  UNL1        0.0772
     26 S         138.2008  141.9090  157.0842 S.3     1  UNL1       -0.0764
@<TRIPOS>BOND
     1    25    26    1
     2    26     1    1
     3     1     2   ar
     4     2     3   ar
     5     3     7    1
     6     7     8   ar
     7     8     9   ar
     8     9    10   ar
     9    10    11    1
    10    10    12   ar
    11    12    13   ar
    12     3     4   ar
    13     4    14    1
    14    14    15   ar
    15    15    16   ar
    16    16    17   ar
    17    17    18   ar
    18    18    20    1
    19    20    21   am
    20    21    22    1
    21    21    23    2
    22    18    19   ar
    23     4     5   ar
    24     5     6    1
    25     5     1   ar
    26    13     7   ar
    27    19    14   ar
    28    20    24    1
@<TRIPOS>MOLECULE
*****
 26 28 0 0 0
SMALL
GASTEIGER

@<TRIPOS>ATOM
      1 C         140.9589  140.8001  167.7162 C.ar    1  UNL1        0.1713
      2 N         140.3235  141.9982  167.0753 N.ar    1  UNL1       -0.2211
      3 C         141.0284  142.2578  165.7769 C.ar    1  UNL1        0.0991
      4 C         142.0995  141.2202  165.6154 C.ar    1  UNL1        0.0794
      5 N         142.0565  140.3192  166.8139 N.ar    1  UNL1       -0.3045
      6 C         142.9537  139.1438  167.0660 C.3     1  UNL1        0.1324
      7 C         140.7169  143.3614  164.8098 C.ar    1  UNL1        0.0193
      8 C         139.3024  143.5949  164.3687 C.ar    1  UNL1        0.0038
      9 C         138.9909  144.6984  163.4016 C.ar    1  UNL1        0.0297
     10 C         140.0939  145.5684  162.8758 C.ar    1  UNL1        0.1401
     11 F         139.7824  146.6720  161.9087 F       1  UNL1       -0.2042
     12 C         141.5084  145.3349  163.3169 C.ar    1  UNL1        0.0297
     13 C         141.8199  144.2313  164.2840 C.ar    1  UNL1        0.0038
     14 C         143.0471  141.1038  164.4585 C.ar    1  UNL1        0.0217
     15 C         144.4745  141.5388  164.6116 C.ar    1  UNL1        0.0223
     16 C         145.4221  141.4224  163.4546 C.ar    1  UNL1        0.1004
     17 N         144.9424  140.8711  162.1447 N.ar    1  UNL1       -0.2290
     18 C         143.5150  140.4361  161.9916 C.ar    1  UNL1        0.1342
     19 C         142.5674  140.5525  163.1486 C.ar    1  UNL1        0.0360
     20 N         143.0353  139.8848  160.6817 N.am    1  UNL1       -0.2693
     21 C         143.2840  138.4463  160.3372 C.2     1  UNL1        0.2277
     22 C         142.8043  137.8949  159.0273 C.3     1  UNL1        0.0950
     23 O         144.0126  137.5591  161.3028 O.2     1  UNL1       -0.2747
     24 H         142.5571  140.4671  160.0481 H       1  UNL1        0.1563
     25 C         139.2890  140.6064  169.6971 C.3     1  UNL1        0.0772
     26 S         140.5658  140.1900  169.0289 S.3     1  UNL1       -0.0764
@<TRIPOS>BOND
     1    25    26    1
     2    26     1    1
     3     1     2   ar
     4     2     3   ar
     5     3     7    1
     6     7     8   ar
     7     8     9   ar
     8     9    10   ar
     9    10    11    1
    10    10    12   ar
    11    12    13   ar
    12     3     4   ar
    13     4    14    1
    14    14    15   ar
    15    15    16   ar
    16    16    17   ar
    17    17    18   ar
    18    18    20    1
    19    20    21   am
    20    21    22    1
    21    21    23    2
    22    18    19   ar
    23     4     5   ar
    24     5     6    1
    25     5     1   ar
    26    13     7   ar
    27    19    14   ar
    28    20    24    1
@<TRIPOS>MOLECULE
*****
 26 28 0 0 0
SMALL
GASTEIGER

@<TRIPOS>ATOM
      1 C         140.9158  140.5257  168.9510 C.ar    1  UNL1        0.1713
      2 N         139.9361  139.8985  168.0041 N.ar    1  UNL1       -0.2211
      3 C         140.2590  140.3761  166.6193 C.ar    1  UNL1        0.0991
      4 C         141.4383  141.2986  166.7104 C.ar    1  UNL1        0.0794
      5 N         141.8442  141.3911  168.1514 N.ar    1  UNL1       -0.3045
      6 C         142.9793  142.2059  168.6971 C.3     1  UNL1        0.1324
      7 C         139.5305  139.9977  165.3638 C.ar    1  UNL1        0.0193
      8 C         138.5558  140.9551  164.7448 C.ar    1  UNL1        0.0038
      9 C         137.8273  140.5766  163.4894 C.ar    1  UNL1        0.0297
     10 C         138.0735  139.2408  162.8531 C.ar    1  UNL1        0.1401
     11 F         137.3449  138.8623  161.5976 F       1  UNL1       -0.2042
     12 C         139.0482  138.2834  163.4722 C.ar    1  UNL1        0.0297
     13 C         139.7766  138.6618  164.7276 C.ar    1  UNL1        0.0038
     14 C         142.0961  142.0047  165.5620 C.ar    1  UNL1        0.0217
     15 C         143.3701  141.4663  164.9812 C.ar    1  UNL1        0.0223
     16 C         144.0279  142.1724  163.8328 C.ar    1  UNL1        0.1004
     17 N         143.4119  143.4168  163.2653 N.ar    1  UNL1       -0.2290
     18 C         142.1380  143.9551  163.8461 C.ar    1  UNL1        0.1342
     19 C         141.4802  143.2490  164.9945 C.ar    1  UNL1        0.0360
     20 N         141.5219  145.1994  163.2786 N.am    1  UNL1       -0.2693
     21 C         140.3854  145.0969  162.3052 C.2     1  UNL1        0.2277
     22 C         139.7693  146.3412  161.7377 C.3     1  UNL1        0.0950
     23 O         139.8649  143.7498  161.8992 O.2     1  UNL1       -0.2747
     24 H         141.8636  146.0835  163.5451 H       1  UNL1        0.1563
     25 C         140.7988  141.4956  171.3584 C.3     1  UNL1        0.0772
     26 S         140.9595  140.3232  170.4366 S.3     1  UNL1       -0.0764
@<TRIPOS>BOND
     1    25    26    1
     2    26     1    1
     3     1     2   ar
     4     2     3   ar
     5     3     7    1
     6     7     8   ar
     7     8     9   ar
     8     9    10   ar
     9    10    11    1
    10    10    12   ar
    11    12    13   ar
    12     3     4   ar
    13     4    14    1
    14    14    15   ar
    15    15    16   ar
    16    16    17   ar
    17    17    18   ar
    18    18    20    1
    19    20    21   am
    20    21    22    1
    21    21    23    2
    22    18    19   ar
    23     4     5   ar
    24     5     6    1
    25     5     1   ar
    26    13     7   ar
    27    19    14   ar
    28    20    24    1
@<TRIPOS>MOLECULE
*****
 26 28 0 0 0
SMALL
GASTEIGER

@<TRIPOS>ATOM
      1 C         139.8259  144.1436  163.0330 C.ar    1  UNL1        0.1713
      2 N         141.1670  143.4938  162.8624 N.ar    1  UNL1       -0.2211
      3 C         141.2544  142.3503  163.8293 C.ar    1  UNL1        0.0991
      4 C         139.9673  142.2933  164.5973 C.ar    1  UNL1        0.0794
      5 N         139.0844  143.4016  164.1053 N.ar    1  UNL1       -0.3045
      6 C         137.7026  143.7132  164.5988 C.3     1  UNL1        0.1324
      7 C         142.4237  141.4260  163.9983 C.ar    1  UNL1        0.0193
      8 C         142.2209  139.9410  163.9371 C.ar    1  UNL1        0.0038
      9 C         143.3902  139.0169  164.1061 C.ar    1  UNL1        0.0297
     10 C         144.7623  139.5776  164.3363 C.ar    1  UNL1        0.1401
     11 F         145.9316  138.6533  164.5053 F       1  UNL1       -0.2042
     12 C         144.9651  141.0625  164.3975 C.ar    1  UNL1        0.0297
     13 C         143.7958  141.9867  164.2285 C.ar    1  UNL1        0.0038
     14 C         139.6234  141.3021  165.6693 C.ar    1  UNL1        0.0217
     15 C         138.5368  140.2941  165.4381 C.ar    1  UNL1        0.0223
     16 C         138.1929  139.3029  166.5101 C.ar    1  UNL1        0.1004
     17 N         138.9354  139.3196  167.8133 N.ar    1  UNL1       -0.2290
     18 C         140.0219  140.3276  168.0445 C.ar    1  UNL1        0.1342
     19 C         140.3658  141.3188  166.9725 C.ar    1  UNL1        0.0360
     20 N         140.7645  140.3443  169.3477 N.am    1  UNL1       -0.2693
     21 C         142.1708  139.8270  169.4163 C.2     1  UNL1        0.2277
     22 C         142.9134  139.8438  170.7195 C.3     1  UNL1        0.0950
     23 O         142.8345  139.2930  168.1816 O.2     1  UNL1       -0.2747
     24 H         140.3289  140.6949  170.1580 H       1  UNL1        0.1563
     25 C         140.1117  145.8782  161.1200 C.3     1  UNL1        0.0772
     26 S         139.3158  145.3274  162.2660 S.3     1  UNL1       -0.0764
@<TRIPOS>BOND
     1    25    26    1
     2    26     1    1
     3     1     2   ar
     4     2     3   ar
     5     3     7    1
     6     7     8   ar
     7     8     9   ar
     8     9    10   ar
     9    10    11    1
    10    10    12   ar
    11    12    13   ar
    12     3     4   ar
    13     4    14    1
    14    14    15   ar
    15    15    16   ar
    16    16    17   ar
    17    17    18   ar
    18    18    20    1
    19    20    21   am
    20    21    22    1
    21    21    23    2
    22    18    19   ar
    23     4     5   ar
    24     5     6    1
    25     5     1   ar
    26    13     7   ar
    27    19    14   ar
    28    20    24    1
