@<TRIPOS>MOLECULE
*****
 33 37 0 0 0
SMALL
GASTEIGER

@<TRIPOS>ATOM
      1 C         139.6921  139.5913  166.8301 C.ar    1  UNL1        0.0206
      2 C         138.6422  138.7063  166.2263 C.ar    1  UNL1        0.0013
      3 C         138.8723  138.0782  164.8837 C.ar    1  UNL1       -0.0045
      4 C         140.1523  138.3352  164.1449 C.ar    1  UNL1       -0.0247
      5 C         141.2020  139.2202  164.7487 C.ar    1  UNL1       -0.0246
      6 C         140.9720  139.8483  166.0913 C.ar    1  UNL1       -0.0029
      7 C         142.5382  139.6046  164.1857 C.3     1  UNL1        0.0433
      8 C         143.1545  139.1987  162.8797 C.3     1  UNL1        0.0768
      9 N         142.5869  138.3084  161.8143 N.3     1  UNL1       -0.2720
     10 C         141.2628  137.6040  161.7917 C.3     1  UNL1        0.0768
     11 C         140.1793  137.6159  162.8289 C.3     1  UNL1        0.0433
     12 C         139.9087  142.9271  170.9174 C.3     1  UNL1        0.0754
     13 C         139.5615  141.7526  170.0515 C.ar    1  UNL1        0.1548
     14 C         140.0609  141.5058  168.6587 C.ar    1  UNL1        0.0580
     15 C         139.4619  140.2193  168.1727 C.ar    1  UNL1        0.1227
     16 N         138.5924  139.6710  169.2652 N.ar    1  UNL1       -0.0774
     17 O         138.6539  140.6186  170.4262 O.2     1  UNL1       -0.3578
     18 C         143.4587  138.0942  160.6126 C.3     1  UNL1        0.0730
     19 C         142.8594  138.1162  159.2377 C.3     1  UNL1        0.0294
     20 C         142.3324  139.4006  158.6696 C.3     1  UNL1        0.0666
     21 S         140.9089  139.4869  158.2048 S.3     1  UNL1       -0.0756
     22 C         139.8380  139.9456  159.1497 C.ar    1  UNL1        0.1933
     23 N         138.4060  139.4991  159.1430 N.ar    1  UNL1       -0.1221
     24 N         137.6939  140.2088  160.2562 N.ar    1  UNL1       -0.1267
     25 C         138.6859  141.0939  160.9509 C.ar    1  UNL1        0.1846
     26 N         140.0110  140.9312  160.2670 N.ar    1  UNL1       -0.2872
     27 C         141.2854  141.6313  160.6358 C.3     1  UNL1        0.1340
     28 C         138.4025  141.9852  162.1236 C.ar    1  UNL1        0.1171
     29 C         138.4537  141.4310  163.5165 C.ar    1  UNL1        0.0223
     30 C         138.1703  142.3223  164.6893 C.ar    1  UNL1        0.0032
     31 C         137.8358  143.7678  164.4691 C.ar    1  UNL1        0.0207
     32 C         137.7846  144.3220  163.0762 C.ar    1  UNL1        0.0989
     33 N         138.0680  143.4307  161.9035 N.ar    1  UNL1       -0.2407
@<TRIPOS>BOND
     1    12    13    1
     2    13    14   ar
     3    14    15   ar
     4    15     1    1
     5     1     2   ar
     6     2     3   ar
     7     3     4   ar
     8     4     5   ar
     9     5     6   ar
    10     5     7    1
    11     7     8    1
    12     8     9    1
    13     9    18    1
    14    18    19    1
    15    19    20    1
    16    20    21    1
    17    21    22    1
    18    22    23   ar
    19    23    24   ar
    20    24    25   ar
    21    25    28    1
    22    28    29   ar
    23    29    30   ar
    24    30    31   ar
    25    31    32   ar
    26    32    33   ar
    27    25    26   ar
    28    26    27    1
    29     9    10    1
    30    10    11    1
    31    15    16   ar
    32    16    17   ar
    33    17    13   ar
    34     6     1   ar
    35    26    22   ar
    36    11     4    1
    37    33    28   ar
@<TRIPOS>MOLECULE
*****
 33 37 0 0 0
SMALL
GASTEIGER

@<TRIPOS>ATOM
      1 C         139.7821  139.6794  166.6757 C.ar    1  UNL1        0.0206
      2 C         138.7485  138.7867  166.0555 C.ar    1  UNL1        0.0013
      3 C         138.9828  138.2005  164.6947 C.ar    1  UNL1       -0.0045
      4 C         140.2509  138.5072  163.9543 C.ar    1  UNL1       -0.0247
      5 C         141.2843  139.3998  164.5745 C.ar    1  UNL1       -0.0246
      6 C         141.0501  139.9860  165.9352 C.ar    1  UNL1       -0.0029
      7 C         142.6070  139.8303  164.0128 C.3     1  UNL1        0.0433
      8 C         143.2226  139.4743  162.6921 C.3     1  UNL1        0.0768
      9 N         142.6677  138.6001  161.6070 N.3     1  UNL1       -0.2720
     10 C         141.3601  137.8657  161.5744 C.3     1  UNL1        0.0768
     11 C         140.2845  137.8244  162.6191 C.3     1  UNL1        0.0433
     12 C         139.9039  142.9369  170.8295 C.3     1  UNL1        0.0754
     13 C         139.6036  141.7628  169.9458 C.ar    1  UNL1        0.1548
     14 C         140.0842  141.5735  168.5374 C.ar    1  UNL1        0.0580
     15 C         139.5477  140.2654  168.0364 C.ar    1  UNL1        0.1227
     16 N         138.7355  139.6462  169.1351 N.ar    1  UNL1       -0.0774
     17 O         138.7701  140.5716  170.3150 O.2     1  UNL1       -0.3578
     18 C         143.5351  138.4387  160.3938 C.3     1  UNL1        0.0730
     19 C         143.1210  139.0515  159.0888 C.3     1  UNL1        0.0294
     20 C         143.7319  140.3460  158.6406 C.3     1  UNL1        0.0666
     21 S         142.8589  141.5390  158.3863 S.3     1  UNL1       -0.0756
     22 C         142.4173  142.4027  159.5303 C.ar    1  UNL1        0.1933
     23 N         143.1107  143.6391  160.0205 N.ar    1  UNL1       -0.1221
     24 N         142.3267  144.1823  161.1782 N.ar    1  UNL1       -0.1267
     25 C         141.1486  143.2816  161.4034 C.ar    1  UNL1        0.1846
     26 N         141.2045  142.1817  160.3850 N.ar    1  UNL1       -0.2872
     27 C         140.2206  141.0581  160.2457 C.3     1  UNL1        0.1340
     28 C         140.0988  143.4509  162.4614 C.ar    1  UNL1        0.1171
     29 C         140.3878  143.0457  163.8764 C.ar    1  UNL1        0.0223
     30 C         139.3380  143.2151  164.9344 C.ar    1  UNL1        0.0032
     31 C         137.9992  143.7896  164.5774 C.ar    1  UNL1        0.0207
     32 C         137.7102  144.1949  163.1624 C.ar    1  UNL1        0.0989
     33 N         138.7600  144.0255  162.1044 N.ar    1  UNL1       -0.2407
@<TRIPOS>BOND
     1    12    13    1
     2    13    14   ar
     3    14    15   ar
     4    15     1    1
     5     1     2   ar
     6     2     3   ar
     7     3     4   ar
     8     4     5   ar
     9     5     6   ar
    10     5     7    1
    11     7     8    1
    12     8     9    1
    13     9    18    1
    14    18    19    1
    15    19    20    1
    16    20    21    1
    17    21    22    1
    18    22    23   ar
    19    23    24   ar
    20    24    25   ar
    21    25    28    1
    22    28    29   ar
    23    29    30   ar
    24    30    31   ar
    25    31    32   ar
    26    32    33   ar
    27    25    26   ar
    28    26    27    1
    29     9    10    1
    30    10    11    1
    31    15    16   ar
    32    16    17   ar
    33    17    13   ar
    34     6     1   ar
    35    26    22   ar
    36    11     4    1
    37    33    28   ar
@<TRIPOS>MOLECULE
*****
 33 37 0 0 0
SMALL
GASTEIGER

@<TRIPOS>ATOM
      1 C         138.8334  139.3264  165.6928 C.ar    1  UNL1        0.0206
      2 C         138.9498  137.9364  165.1409 C.ar    1  UNL1        0.0013
      3 C         138.9352  137.7148  163.6574 C.ar    1  UNL1       -0.0045
      4 C         138.8042  138.8832  162.7258 C.ar    1  UNL1       -0.0247
      5 C         138.6878  140.2730  163.2777 C.ar    1  UNL1       -0.0246
      6 C         138.7024  140.4947  164.7612 C.ar    1  UNL1       -0.0029
      7 C         138.5495  141.5671  162.5317 C.3     1  UNL1        0.0433
      8 C         138.4934  141.7906  161.0494 C.3     1  UNL1        0.0768
      9 N         138.5618  140.7756  159.9474 N.3     1  UNL1       -0.2720
     10 C         138.7032  139.2861  160.0550 C.3     1  UNL1        0.0768
     11 C         138.8110  138.4439  161.2916 C.3     1  UNL1        0.0433
     12 C         140.2250  140.9824  170.5095 C.3     1  UNL1        0.0754
     13 C         139.4876  140.3091  169.3903 C.ar    1  UNL1        0.1548
     14 C         139.8553  140.3583  167.9368 C.ar    1  UNL1        0.0580
     15 C         138.8480  139.5479  167.1763 C.ar    1  UNL1        0.1227
     16 N         137.8578  138.9978  168.1596 N.ar    1  UNL1       -0.0774
     17 O         138.2531  139.4683  169.5279 O.2     1  UNL1       -0.3578
     18 C         138.4778  141.3222  158.5530 C.3     1  UNL1        0.0730
     19 C         138.5078  142.8045  158.3254 C.3     1  UNL1        0.0294
     20 C         139.7331  143.4503  157.7494 C.3     1  UNL1        0.0666
     21 S         140.2925  144.6919  158.3782 S.3     1  UNL1       -0.0756
     22 C         140.4412  144.7762  159.8685 C.ar    1  UNL1        0.1933
     23 N         139.6287  145.6388  160.7882 N.ar    1  UNL1       -0.1221
     24 N         140.1138  145.4086  162.1887 N.ar    1  UNL1       -0.1267
     25 C         141.2261  144.4036  162.1346 C.ar    1  UNL1        0.1846
     26 N         141.4285  144.0128  160.7006 N.ar    1  UNL1       -0.2872
     27 C         142.4404  143.0310  160.1887 C.3     1  UNL1        0.1340
     28 C         142.0002  143.8812  163.3084 C.ar    1  UNL1        0.1171
     29 C         141.3033  143.0867  164.3729 C.ar    1  UNL1        0.0223
     30 C         142.0774  142.5643  165.5467 C.ar    1  UNL1        0.0032
     31 C         143.5484  142.8363  165.6561 C.ar    1  UNL1        0.0207
     32 C         144.2453  143.6309  164.5917 C.ar    1  UNL1        0.0989
     33 N         143.4713  144.1533  163.4179 N.ar    1  UNL1       -0.2407
@<TRIPOS>BOND
     1    12    13    1
     2    13    14   ar
     3    14    15   ar
     4    15     1    1
     5     1     2   ar
     6     2     3   ar
     7     3     4   ar
     8     4     5   ar
     9     5     6   ar
    10     5     7    1
    11     7     8    1
    12     8     9    1
    13     9    18    1
    14    18    19    1
    15    19    20    1
    16    20    21    1
    17    21    22    1
    18    22    23   ar
    19    23    24   ar
    20    24    25   ar
    21    25    28    1
    22    28    29   ar
    23    29    30   ar
    24    30    31   ar
    25    31    32   ar
    26    32    33   ar
    27    25    26   ar
    28    26    27    1
    29     9    10    1
    30    10    11    1
    31    15    16   ar
    32    16    17   ar
    33    17    13   ar
    34     6     1   ar
    35    26    22   ar
    36    11     4    1
    37    33    28   ar
@<TRIPOS>MOLECULE
*****
 33 37 0 0 0
SMALL
GASTEIGER

@<TRIPOS>ATOM
      1 C         141.3613  142.0230  166.1776 C.ar    1  UNL1        0.0206
      2 C         140.1888  142.8745  166.5653 C.ar    1  UNL1        0.0013
      3 C         139.6010  143.8368  165.5760 C.ar    1  UNL1       -0.0045
      4 C         140.1857  143.9474  164.1991 C.ar    1  UNL1       -0.0247
      5 C         141.3581  143.0960  163.8115 C.ar    1  UNL1       -0.0246
      6 C         141.9459  142.1337  164.8006 C.ar    1  UNL1       -0.0029
      7 C         142.0878  143.0494  162.5016 C.3     1  UNL1        0.0433
      8 C         141.8251  143.8428  161.2560 C.3     1  UNL1        0.0768
      9 N         140.7680  144.8787  161.0126 N.3     1  UNL1       -0.2720
     10 C         139.7124  145.3772  161.9546 C.3     1  UNL1        0.0768
     11 C         139.4533  144.9627  163.3727 C.3     1  UNL1        0.0433
     12 C         142.9147  139.8026  170.7094 C.3     1  UNL1        0.0754
     13 C         142.6631  140.0401  169.2499 C.ar    1  UNL1        0.1548
     14 C         141.9863  141.2398  168.6557 C.ar    1  UNL1        0.0580
     15 C         141.9490  141.0608  167.1669 C.ar    1  UNL1        0.1227
     16 N         142.6027  139.7506  166.8410 N.ar    1  UNL1       -0.0774
     17 O         143.0440  139.1199  168.1283 O.2     1  UNL1       -0.3578
     18 C         140.7662  145.4982  159.6465 C.3     1  UNL1        0.0730
     19 C         140.8709  144.6289  158.4286 C.3     1  UNL1        0.0294
     20 C         139.6567  143.9191  157.9069 C.3     1  UNL1        0.0666
     21 S         139.3699  142.5104  158.3346 S.3     1  UNL1       -0.0756
     22 C         138.8942  142.2322  159.7298 C.ar    1  UNL1        0.1933
     23 N         137.7627  142.9246  160.4299 N.ar    1  UNL1       -0.1221
     24 N         137.6357  142.3332  161.8026 N.ar    1  UNL1       -0.1267
     25 C         138.6888  141.2753  161.9507 C.ar    1  UNL1        0.1846
     26 N         139.4666  141.2129  160.6696 N.ar    1  UNL1       -0.2872
     27 C         140.6151  140.2927  160.3795 C.3     1  UNL1        0.1340
     28 C         138.9229  140.4285  163.1665 C.ar    1  UNL1        0.1171
     29 C         138.0834  140.6291  164.3932 C.ar    1  UNL1        0.0223
     30 C         138.3175  139.7823  165.6090 C.ar    1  UNL1        0.0032
     31 C         139.3911  138.7349  165.5981 C.ar    1  UNL1        0.0207
     32 C         140.2307  138.5343  164.3713 C.ar    1  UNL1        0.0989
     33 N         139.9965  139.3811  163.1556 N.ar    1  UNL1       -0.2407
@<TRIPOS>BOND
     1    12    13    1
     2    13    14   ar
     3    14    15   ar
     4    15     1    1
     5     1     2   ar
     6     2     3   ar
     7     3     4   ar
     8     4     5   ar
     9     5     6   ar
    10     5     7    1
    11     7     8    1
    12     8     9    1
    13     9    18    1
    14    18    19    1
    15    19    20    1
    16    20    21    1
    17    21    22    1
    18    22    23   ar
    19    23    24   ar
    20    24    25   ar
    21    25    28    1
    22    28    29   ar
    23    29    30   ar
    24    30    31   ar
    25    31    32   ar
    26    32    33   ar
    27    25    26   ar
    28    26    27    1
    29     9    10    1
    30    10    11    1
    31    15    16   ar
    32    16    17   ar
    33    17    13   ar
    34     6     1   ar
    35    26    22   ar
    36    11     4    1
    37    33    28   ar
@<TRIPOS>MOLECULE
*****
 33 37 0 0 0
SMALL
GASTEIGER

@<TRIPOS>ATOM
      1 C         139.9276  140.9435  166.5236 C.ar    1  UNL1        0.0206
      2 C         138.8485  140.2378  165.7572 C.ar    1  UNL1        0.0013
      3 C         138.4292  140.7476  164.4101 C.ar    1  UNL1       -0.0045
      4 C         139.0892  141.9632  163.8296 C.ar    1  UNL1       -0.0247
      5 C         140.1682  142.6688  164.5961 C.ar    1  UNL1       -0.0246
      6 C         140.5874  142.1591  165.9431 C.ar    1  UNL1       -0.0029
      7 C         140.9496  143.8877  164.2039 C.3     1  UNL1        0.0433
      8 C         140.8449  144.7019  162.9484 C.3     1  UNL1        0.0768
      9 N         139.9330  144.4982  161.7751 N.3     1  UNL1       -0.2720
     10 C         138.9005  143.4301  161.5673 C.3     1  UNL1        0.0768
     11 C         138.5249  142.3019  162.4817 C.3     1  UNL1        0.0433
     12 C         142.8795  139.6266  170.6988 C.3     1  UNL1        0.0754
     13 C         141.7036  139.8283  169.7898 C.ar    1  UNL1        0.1548
     14 C         141.7450  140.4240  168.4136 C.ar    1  UNL1        0.0580
     15 C         140.3468  140.4337  167.8706 C.ar    1  UNL1        0.1227
     16 N         139.4413  139.8440  168.9110 N.ar    1  UNL1       -0.0774
     17 O         140.2799  139.4699  170.0970 O.2     1  UNL1       -0.3578
     18 C         140.0719  145.4943  160.6622 C.3     1  UNL1        0.0730
     19 C         141.1698  145.3415  159.6515 C.3     1  UNL1        0.0294
     20 C         141.4179  144.0089  159.0092 C.3     1  UNL1        0.0666
     21 S         142.6771  143.2527  159.3132 S.3     1  UNL1       -0.0756
     22 C         142.8001  142.4856  160.5963 C.ar    1  UNL1        0.1933
     23 N         143.7269  142.8078  161.7308 N.ar    1  UNL1       -0.1221
     24 N         143.5175  141.7829  162.8059 N.ar    1  UNL1       -0.1267
     25 C         142.4612  140.8273  162.3358 C.ar    1  UNL1        0.1846
     26 N         142.0178  141.2615  160.9702 N.ar    1  UNL1       -0.2872
     27 C         140.9752  140.5897  160.1266 C.3     1  UNL1        0.1340
     28 C         141.9398  139.6450  163.0976 C.ar    1  UNL1        0.1171
     29 C         142.5056  139.3130  164.4465 C.ar    1  UNL1        0.0223
     30 C         141.9843  138.1307  165.2083 C.ar    1  UNL1        0.0032
     31 C         140.8971  137.2803  164.6211 C.ar    1  UNL1        0.0207
     32 C         140.3313  137.6122  163.2722 C.ar    1  UNL1        0.0989
     33 N         140.8527  138.7945  162.5104 N.ar    1  UNL1       -0.2407
@<TRIPOS>BOND
     1    12    13    1
     2    13    14   ar
     3    14    15   ar
     4    15     1    1
     5     1     2   ar
     6     2     3   ar
     7     3     4   ar
     8     4     5   ar
     9     5     6   ar
    10     5     7    1
    11     7     8    1
    12     8     9    1
    13     9    18    1
    14    18    19    1
    15    19    20    1
    16    20    21    1
    17    21    22    1
    18    22    23   ar
    19    23    24   ar
    20    24    25   ar
    21    25    28    1
    22    28    29   ar
    23    29    30   ar
    24    30    31   ar
    25    31    32   ar
    26    32    33   ar
    27    25    26   ar
    28    26    27    1
    29     9    10    1
    30    10    11    1
    31    15    16   ar
    32    16    17   ar
    33    17    13   ar
    34     6     1   ar
    35    26    22   ar
    36    11     4    1
    37    33    28   ar
@<TRIPOS>MOLECULE
*****
 33 37 0 0 0
SMALL
GASTEIGER

@<TRIPOS>ATOM
      1 C         142.9501  141.9352  166.6211 C.ar    1  UNL1        0.0206
      2 C         143.8881  142.8212  165.8560 C.ar    1  UNL1        0.0013
      3 C         144.3325  142.4303  164.4776 C.ar    1  UNL1       -0.0045
      4 C         143.8389  141.1534  163.8644 C.ar    1  UNL1       -0.0247
      5 C         142.9009  140.2675  164.6295 C.ar    1  UNL1       -0.0246
      6 C         142.4565  140.6584  166.0078 C.ar    1  UNL1       -0.0029
      7 C         142.2938  138.9623  164.2076 C.3     1  UNL1        0.0433
      8 C         142.4749  138.2207  162.9163 C.3     1  UNL1        0.0768
      9 N         143.3076  138.6011  161.7282 N.3     1  UNL1       -0.2720
     10 C         144.1651  139.8171  161.5377 C.3     1  UNL1        0.0768
     11 C         144.4015  140.9530  162.4885 C.3     1  UNL1        0.0433
     12 C         139.9043  143.1137  170.7701 C.3     1  UNL1        0.0754
     13 C         141.1058  142.8679  169.9065 C.ar    1  UNL1        0.1548
     14 C         141.0856  142.4590  168.4634 C.ar    1  UNL1        0.0580
     15 C         142.5058  142.3262  167.9993 C.ar    1  UNL1        0.1227
     16 N         143.4037  142.6530  169.1556 N.ar    1  UNL1       -0.0774
     17 O         142.5385  142.9878  170.3342 O.2     1  UNL1       -0.3578
     18 C         143.2792  137.6383  160.5784 C.3     1  UNL1        0.0730
     19 C         142.9776  138.1315  159.1942 C.3     1  UNL1        0.0294
     20 C         141.5544  138.3084  158.7545 C.3     1  UNL1        0.0666
     21 S         140.8798  139.6384  158.9145 S.3     1  UNL1       -0.0756
     22 C         140.2433  140.0040  160.2227 C.ar    1  UNL1        0.1933
     23 N         139.5026  139.0708  161.1341 N.ar    1  UNL1       -0.1221
     24 N         139.0373  139.8570  162.3238 N.ar    1  UNL1       -0.1267
     25 C         139.4904  141.2760  162.1477 C.ar    1  UNL1        0.1846
     26 N         140.2357  141.3669  160.8491 N.ar    1  UNL1       -0.2872
     27 C         140.8633  142.6036  160.2774 C.3     1  UNL1        0.1340
     28 C         139.2417  142.4059  163.1025 C.ar    1  UNL1        0.1171
     29 C         140.2352  142.7047  164.1858 C.ar    1  UNL1        0.0223
     30 C         139.9866  143.8345  165.1406 C.ar    1  UNL1        0.0032
     31 C         138.7446  144.6655  165.0122 C.ar    1  UNL1        0.0207
     32 C         137.7511  144.3667  163.9288 C.ar    1  UNL1        0.0989
     33 N         137.9997  143.2369  162.9740 N.ar    1  UNL1       -0.2407
@<TRIPOS>BOND
     1    12    13    1
     2    13    14   ar
     3    14    15   ar
     4    15     1    1
     5     1     2   ar
     6     2     3   ar
     7     3     4   ar
     8     4     5   ar
     9     5     6   ar
    10     5     7    1
    11     7     8    1
    12     8     9    1
    13     9    18    1
    14    18    19    1
    15    19    20    1
    16    20    21    1
    17    21    22    1
    18    22    23   ar
    19    23    24   ar
    20    24    25   ar
    21    25    28    1
    22    28    29   ar
    23    29    30   ar
    24    30    31   ar
    25    31    32   ar
    26    32    33   ar
    27    25    26   ar
    28    26    27    1
    29     9    10    1
    30    10    11    1
    31    15    16   ar
    32    16    17   ar
    33    17    13   ar
    34     6     1   ar
    35    26    22   ar
    36    11     4    1
    37    33    28   ar
@<TRIPOS>MOLECULE
*****
 33 37 0 0 0
SMALL
GASTEIGER

@<TRIPOS>ATOM
      1 C         139.0148  139.2310  165.7356 C.ar    1  UNL1        0.0206
      2 C         138.9866  137.8042  165.2737 C.ar    1  UNL1        0.0013
      3 C         139.0580  137.4884  163.8091 C.ar    1  UNL1       -0.0045
      4 C         139.1575  138.5996  162.8063 C.ar    1  UNL1       -0.0247
      5 C         139.1856  140.0263  163.2682 C.ar    1  UNL1       -0.0246
      6 C         139.1143  140.3421  164.7328 C.ar    1  UNL1       -0.0029
      7 C         139.2803  141.2750  162.4424 C.3     1  UNL1        0.0433
      8 C         139.3702  141.4052  160.9506 C.3     1  UNL1        0.0768
      9 N         139.3877  140.3189  159.9165 N.3     1  UNL1       -0.2720
     10 C         139.3195  138.8341  160.1184 C.3     1  UNL1        0.0768
     11 C         139.2171  138.0689  161.4045 C.3     1  UNL1        0.0433
     12 C         140.0314  141.3173  170.4784 C.3     1  UNL1        0.0754
     13 C         139.4107  140.5057  169.3803 C.ar    1  UNL1        0.1548
     14 C         139.8353  140.4979  167.9416 C.ar    1  UNL1        0.0580
     15 C         138.9434  139.5467  167.2002 C.ar    1  UNL1        0.1227
     16 N         137.9676  138.9666  168.1807 N.ar    1  UNL1       -0.0774
     17 O         138.2564  139.5593  169.5280 O.2     1  UNL1       -0.3578
     18 C         139.4863  140.7781  158.4919 C.3     1  UNL1        0.0730
     19 C         140.3951  140.0648  157.5352 C.3     1  UNL1        0.0294
     20 C         141.8069  140.5362  157.3488 C.3     1  UNL1        0.0666
     21 S         142.9475  139.7118  157.8677 S.3     1  UNL1       -0.0756
     22 C         142.9002  139.1589  159.2613 C.ar    1  UNL1        0.1933
     23 N         142.8322  137.7070  159.6320 N.ar    1  UNL1       -0.1221
     24 N         142.8026  137.6116  161.1287 N.ar    1  UNL1       -0.1267
     25 C         142.8522  139.0046  161.6830 C.ar    1  UNL1        0.1846
     26 N         142.9125  139.9609  160.5289 N.ar    1  UNL1       -0.2872
     27 C         142.9743  141.4565  160.6255 C.3     1  UNL1        0.1340
     28 C         142.8430  139.3760  163.1362 C.ar    1  UNL1        0.1171
     29 C         142.6449  138.3169  164.1798 C.ar    1  UNL1        0.0223
     30 C         142.6358  138.6884  165.6331 C.ar    1  UNL1        0.0032
     31 C         142.8247  140.1189  166.0428 C.ar    1  UNL1        0.0207
     32 C         143.0229  141.1780  164.9992 C.ar    1  UNL1        0.0989
     33 N         143.0320  140.8065  163.5459 N.ar    1  UNL1       -0.2407
@<TRIPOS>BOND
     1    12    13    1
     2    13    14   ar
     3    14    15   ar
     4    15     1    1
     5     1     2   ar
     6     2     3   ar
     7     3     4   ar
     8     4     5   ar
     9     5     6   ar
    10     5     7    1
    11     7     8    1
    12     8     9    1
    13     9    18    1
    14    18    19    1
    15    19    20    1
    16    20    21    1
    17    21    22    1
    18    22    23   ar
    19    23    24   ar
    20    24    25   ar
    21    25    28    1
    22    28    29   ar
    23    29    30   ar
    24    30    31   ar
    25    31    32   ar
    26    32    33   ar
    27    25    26   ar
    28    26    27    1
    29     9    10    1
    30    10    11    1
    31    15    16   ar
    32    16    17   ar
    33    17    13   ar
    34     6     1   ar
    35    26    22   ar
    36    11     4    1
    37    33    28   ar
@<TRIPOS>MOLECULE
*****
 33 37 0 0 0
SMALL
GASTEIGER

@<TRIPOS>ATOM
      1 C         139.9470  139.7889  166.5801 C.ar    1  UNL1        0.0206
      2 C         141.1434  139.0747  166.0244 C.ar    1  UNL1        0.0013
      3 C         141.2649  138.8533  164.5458 C.ar    1  UNL1       -0.0045
      4 C         140.1899  139.3461  163.6229 C.ar    1  UNL1       -0.0247
      5 C         138.9937  140.0602  164.1785 C.ar    1  UNL1       -0.0246
      6 C         138.8722  140.2816  165.6571 C.ar    1  UNL1       -0.0029
      7 C         137.8173  140.6280  163.4409 C.3     1  UNL1        0.0433
      8 C         137.5469  140.6219  161.9655 C.3     1  UNL1        0.0768
      9 N         138.3860  140.0465  160.8634 N.3     1  UNL1       -0.2720
     10 C         139.7027  139.3350  160.9643 C.3     1  UNL1        0.0768
     11 C         140.5055  139.0233  162.1924 C.3     1  UNL1        0.0433
     12 C         141.0088  141.2409  171.5444 C.3     1  UNL1        0.0754
     13 C         140.3136  140.6776  170.3406 C.ar    1  UNL1        0.1548
     14 C         140.8464  140.6692  168.9383 C.ar    1  UNL1        0.0580
     15 C         139.8256  140.0102  168.0586 C.ar    1  UNL1        0.1227
     16 N         138.6620  139.6114  168.9172 N.ar    1  UNL1       -0.0774
     17 O         138.9637  140.0239  170.3274 O.2     1  UNL1       -0.3578
     18 C         137.8355  140.2031  159.4768 C.3     1  UNL1        0.0730
     19 C         138.6851  140.8030  158.3958 C.3     1  UNL1        0.0294
     20 C         138.5160  142.2460  158.0229 C.3     1  UNL1        0.0666
     21 S         139.4250  143.2841  158.6109 S.3     1  UNL1       -0.0756
     22 C         139.6664  143.3180  160.0910 C.ar    1  UNL1        0.1933
     23 N         138.7538  143.9172  161.1196 N.ar    1  UNL1       -0.1221
     24 N         139.3861  143.7282  162.4667 N.ar    1  UNL1       -0.1267
     25 C         140.6895  143.0122  162.2705 C.ar    1  UNL1        0.1846
     26 N         140.8628  142.7587  160.8022 N.ar    1  UNL1       -0.2872
     27 C         142.0278  142.0672  160.1583 C.3     1  UNL1        0.1340
     28 C         141.6509  142.6187  163.3526 C.ar    1  UNL1        0.1171
     29 C         141.3509  142.9588  164.7824 C.ar    1  UNL1        0.0223
     30 C         142.3123  142.5653  165.8645 C.ar    1  UNL1        0.0032
     31 C         143.5736  141.8319  165.5169 C.ar    1  UNL1        0.0207
     32 C         143.8736  141.4919  164.0870 C.ar    1  UNL1        0.0989
     33 N         142.9123  141.8853  163.0049 N.ar    1  UNL1       -0.2407
@<TRIPOS>BOND
     1    12    13    1
     2    13    14   ar
     3    14    15   ar
     4    15     1    1
     5     1     2   ar
     6     2     3   ar
     7     3     4   ar
     8     4     5   ar
     9     5     6   ar
    10     5     7    1
    11     7     8    1
    12     8     9    1
    13     9    18    1
    14    18    19    1
    15    19    20    1
    16    20    21    1
    17    21    22    1
    18    22    23   ar
    19    23    24   ar
    20    24    25   ar
    21    25    28    1
    22    28    29   ar
    23    29    30   ar
    24    30    31   ar
    25    31    32   ar
    26    32    33   ar
    27    25    26   ar
    28    26    27    1
    29     9    10    1
    30    10    11    1
    31    15    16   ar
    32    16    17   ar
    33    17    13   ar
    34     6     1   ar
    35    26    22   ar
    36    11     4    1
    37    33    28   ar
@<TRIPOS>MOLECULE
*****
 33 37 0 0 0
SMALL
GASTEIGER

@<TRIPOS>ATOM
      1 C         143.7983  141.0252  162.5482 C.ar    1  UNL1        0.0206
      2 C         143.9859  142.4720  162.8972 C.ar    1  UNL1        0.0013
      3 C         143.8635  142.9216  164.3230 C.ar    1  UNL1       -0.0045
      4 C         143.5534  141.9243  165.3999 C.ar    1  UNL1       -0.0247
      5 C         143.3659  140.4777  165.0508 C.ar    1  UNL1       -0.0246
      6 C         143.4883  140.0281  163.6251 C.ar    1  UNL1       -0.0029
      7 C         143.0537  139.3284  165.9629 C.3     1  UNL1        0.0433
      8 C         142.8520  139.3422  167.4493 C.3     1  UNL1        0.0768
      9 N         142.9127  140.5084  168.3905 N.3     1  UNL1       -0.2720
     10 C         143.1900  141.9491  168.0781 C.3     1  UNL1        0.0768
     11 C         143.4752  142.5792  166.7471 C.3     1  UNL1        0.0433
     12 C         144.2710  141.0767  157.2895 C.3     1  UNL1        0.0754
     13 C         144.1380  140.5993  158.7052 C.ar    1  UNL1        0.1548
     14 C         144.0394  141.4691  159.9234 C.ar    1  UNL1        0.0580
     15 C         143.9208  140.5757  161.1224 C.ar    1  UNL1        0.1227
     16 N         143.9460  139.1538  160.6454 N.ar    1  UNL1       -0.0774
     17 O         144.0803  139.1684  159.1515 O.2     1  UNL1       -0.3578
     18 C         142.6630  140.1923  169.8354 C.3     1  UNL1        0.0730
     19 C         141.4725  139.3686  170.2282 C.3     1  UNL1        0.0294
     20 C         140.1305  140.0191  170.3895 C.3     1  UNL1        0.0666
     21 S         139.5314  140.7941  169.2536 S.3     1  UNL1       -0.0756
     22 C         138.9281  140.0694  168.0870 C.ar    1  UNL1        0.1933
     23 N         137.9826  138.9075  168.1641 N.ar    1  UNL1       -0.1221
     24 N         137.6346  138.4993  166.7633 N.ar    1  UNL1       -0.1267
     25 C         138.3651  139.4090  165.8204 C.ar    1  UNL1        0.1846
     26 N         139.1645  140.3794  166.6386 N.ar    1  UNL1       -0.2872
     27 C         140.0456  141.4685  166.1023 C.3     1  UNL1        0.1340
     28 C         138.3064  139.3574  164.3225 C.ar    1  UNL1        0.1171
     29 C         138.8105  138.1473  163.5934 C.ar    1  UNL1        0.0223
     30 C         138.7518  138.0957  162.0954 C.ar    1  UNL1        0.0032
     31 C         138.1890  139.2541  161.3265 C.ar    1  UNL1        0.0207
     32 C         137.6849  140.4642  162.0556 C.ar    1  UNL1        0.0989
     33 N         137.7436  140.5158  163.5536 N.ar    1  UNL1       -0.2407
@<TRIPOS>BOND
     1    12    13    1
     2    13    14   ar
     3    14    15   ar
     4    15     1    1
     5     1     2   ar
     6     2     3   ar
     7     3     4   ar
     8     4     5   ar
     9     5     6   ar
    10     5     7    1
    11     7     8    1
    12     8     9    1
    13     9    18    1
    14    18    19    1
    15    19    20    1
    16    20    21    1
    17    21    22    1
    18    22    23   ar
    19    23    24   ar
    20    24    25   ar
    21    25    28    1
    22    28    29   ar
    23    29    30   ar
    24    30    31   ar
    25    31    32   ar
    26    32    33   ar
    27    25    26   ar
    28    26    27    1
    29     9    10    1
    30    10    11    1
    31    15    16   ar
    32    16    17   ar
    33    17    13   ar
    34     6     1   ar
    35    26    22   ar
    36    11     4    1
    37    33    28   ar
