@<TRIPOS>MOLECULE
*****
 31 33 0 0 0
SMALL
GASTEIGER

@<TRIPOS>ATOM
      1 C         141.3580  138.2714  164.8521 C.3     1  UNL1        0.1688
      2 C         139.9554  138.6616  165.2136 C.3     1  UNL1        0.0609
      3 C         138.8645  138.5736  164.1879 C.3     1  UNL1        0.0758
      4 N         139.1761  138.0954  162.8007 N.3     1  UNL1       -0.2724
      5 C         140.5786  137.7053  162.4392 C.3     1  UNL1        0.0758
      6 C         141.6696  137.7933  163.4649 C.3     1  UNL1        0.0609
      7 O         142.4490  138.3594  165.8778 O.3     1  UNL1       -0.4776
      8 C         142.6007  141.0062  168.8310 C.ar    1  UNL1       -0.0191
      9 C         142.3720  139.7236  168.0875 C.ar    1  UNL1        0.0342
     10 C         142.6777  139.6419  166.6213 C.ar    1  UNL1        0.1555
     11 C         143.2122  140.8428  165.8985 C.ar    1  UNL1        0.1151
     12 N         143.5179  140.7611  164.4323 N.ar    1  UNL1       -0.2408
     13 C         144.0524  141.9619  163.7096 C.ar    1  UNL1        0.0989
     14 C         144.2811  143.2444  164.4532 C.ar    1  UNL1        0.0207
     15 C         143.9754  143.3261  165.9194 C.ar    1  UNL1        0.0032
     16 C         143.4409  142.1253  166.6420 C.ar    1  UNL1        0.0204
     17 C         143.1351  142.2070  168.1083 C.ar    1  UNL1       -0.0026
     18 C         142.2949  141.0878  170.2973 C.3     1  UNL1        0.0265
     19 C         141.0895  141.8445  170.7710 C.3     1  UNL1        0.0047
     20 C         139.0708  140.4725  169.8809 C.3     1  UNL1        0.0000
     21 C         139.8074  141.7742  169.9958 C.3     1  UNL1        0.0003
     22 C         138.0851  138.0074  161.7750 C.3     1  UNL1        0.0739
     23 C         137.3614  139.2478  161.3415 C.3     1  UNL1        0.0426
     24 C         138.1373  140.4594  160.9175 C.3     1  UNL1        0.1521
     25 S         138.5883  141.4576  161.9422 S.O2    1  UNL1       -0.0132
     26 O         140.0122  141.2485  161.5194 O.2     1  UNL1       -0.1731
     27 O         137.1645  141.6668  162.3651 O.2     1  UNL1       -0.1731
     28 C         139.0393  142.4559  162.9670 C.3     1  UNL1        0.1107
     29 C         137.6956  143.1202  162.9112 C.3     1  UNL1        0.0236
     30 C         140.3830  141.7916  163.0228 C.3     1  UNL1        0.0236
     31 C         139.4903  143.4542  163.9917 C.3     1  UNL1        0.0236
@<TRIPOS>BOND
     1    20    21    1
     2    21    19    1
     3    19    18    1
     4    18     8    1
     5     8     9   ar
     6     9    10   ar
     7    10     7    1
     8     7     1    1
     9     1     2    1
    10     2     3    1
    11     3     4    1
    12     4    22    1
    13    22    23    1
    14    23    24    1
    15    24    25    1
    16    25    26    2
    17    25    27    2
    18    25    28    1
    19    28    29    1
    20    28    30    1
    21    28    31    1
    22     4     5    1
    23     5     6    1
    24    10    11   ar
    25    11    12   ar
    26    12    13   ar
    27    13    14   ar
    28    14    15   ar
    29    15    16   ar
    30    16    17   ar
    31    17     8   ar
    32     6     1    1
    33    16    11   ar
@<TRIPOS>MOLECULE
*****
 31 33 0 0 0
SMALL
GASTEIGER

@<TRIPOS>ATOM
      1 C         142.7913  141.3302  164.1628 C.3     1  UNL1        0.1688
      2 C         143.0271  142.7648  164.5323 C.3     1  UNL1        0.0609
      3 C         142.7998  143.8473  163.5191 C.3     1  UNL1        0.0758
      4 N         142.3368  143.4953  162.1365 N.3     1  UNL1       -0.2724
      5 C         142.1010  142.0608  161.7670 C.3     1  UNL1        0.0758
      6 C         142.3282  140.9782  162.7802 C.3     1  UNL1        0.0609
      7 O         143.0186  140.2478  165.1760 O.3     1  UNL1       -0.4776
      8 C         141.9382  140.5358  168.9838 C.ar    1  UNL1       -0.0191
      9 C         142.7754  140.5869  167.7403 C.ar    1  UNL1        0.0342
     10 C         142.1813  140.1966  166.4195 C.ar    1  UNL1        0.1555
     11 C         140.7498  139.7550  166.3422 C.ar    1  UNL1        0.1151
     12 N         140.1557  139.3646  165.0214 N.ar    1  UNL1       -0.2408
     13 C         138.7243  138.9230  164.9441 C.ar    1  UNL1        0.0989
     14 C         137.8870  138.8718  166.1876 C.ar    1  UNL1        0.0207
     15 C         138.4811  139.2622  167.5084 C.ar    1  UNL1        0.0032
     16 C         139.9125  139.7038  167.5857 C.ar    1  UNL1        0.0204
     17 C         140.5067  140.0942  168.9065 C.ar    1  UNL1       -0.0026
     18 C         142.5324  140.9262  170.3047 C.3     1  UNL1        0.0265
     19 C         142.2027  142.2579  170.9111 C.3     1  UNL1        0.0047
     20 C         140.3880  143.7646  169.8217 C.3     1  UNL1        0.0000
     21 C         141.8313  143.4126  170.0286 C.3     1  UNL1        0.0003
     22 C         142.1095  144.5777  161.1233 C.3     1  UNL1        0.0739
     23 C         140.7189  145.0698  160.8505 C.3     1  UNL1        0.0426
     24 C         139.8476  145.5223  161.9845 C.3     1  UNL1        0.1521
     25 S         139.1085  144.5126  162.8116 S.O2    1  UNL1       -0.0132
     26 O         138.5476  143.9000  161.5626 O.2     1  UNL1       -0.1731
     27 O         139.6694  145.1252  164.0606 O.2     1  UNL1       -0.1731
     28 C         138.3694  143.5027  163.6387 C.3     1  UNL1        0.1107
     29 C         138.3758  144.4504  164.8014 C.3     1  UNL1        0.0236
     30 C         138.3630  142.5551  162.4761 C.3     1  UNL1        0.0236
     31 C         137.6304  142.4930  164.4658 C.3     1  UNL1        0.0236
@<TRIPOS>BOND
     1    20    21    1
     2    21    19    1
     3    19    18    1
     4    18     8    1
     5     8     9   ar
     6     9    10   ar
     7    10     7    1
     8     7     1    1
     9     1     2    1
    10     2     3    1
    11     3     4    1
    12     4    22    1
    13    22    23    1
    14    23    24    1
    15    24    25    1
    16    25    26    2
    17    25    27    2
    18    25    28    1
    19    28    29    1
    20    28    30    1
    21    28    31    1
    22     4     5    1
    23     5     6    1
    24    10    11   ar
    25    11    12   ar
    26    12    13   ar
    27    13    14   ar
    28    14    15   ar
    29    15    16   ar
    30    16    17   ar
    31    17     8   ar
    32     6     1    1
    33    16    11   ar
@<TRIPOS>MOLECULE
*****
 31 33 0 0 0
SMALL
GASTEIGER

@<TRIPOS>ATOM
      1 C         139.8317  142.2152  164.6584 C.3     1  UNL1        0.1688
      2 C         138.4514  141.6404  164.5379 C.3     1  UNL1        0.0609
      3 C         137.9045  141.2791  163.1887 C.3     1  UNL1        0.0758
      4 N         138.7379  141.4926  161.9599 N.3     1  UNL1       -0.2724
      5 C         140.1181  142.0674  162.0803 C.3     1  UNL1        0.0758
      6 C         140.6651  142.4287  163.4296 C.3     1  UNL1        0.0609
      7 O         140.3786  142.5765  166.0075 O.3     1  UNL1       -0.4776
      8 C         142.6711  139.4700  166.9262 C.ar    1  UNL1       -0.0191
      9 C         141.9261  140.4926  166.1206 C.ar    1  UNL1        0.0342
     10 C         141.1236  141.5538  166.8132 C.ar    1  UNL1        0.1555
     11 C         141.0661  141.5924  168.3117 C.ar    1  UNL1        0.1151
     12 N         140.2636  142.6536  169.0044 N.ar    1  UNL1       -0.2408
     13 C         140.2061  142.6921  170.5027 C.ar    1  UNL1        0.0989
     14 C         140.9511  141.6694  171.3084 C.ar    1  UNL1        0.0207
     15 C         141.7536  140.6083  170.6157 C.ar    1  UNL1        0.0032
     16 C         141.8111  140.5697  169.1174 C.ar    1  UNL1        0.0204
     17 C         142.6136  139.5085  168.4246 C.ar    1  UNL1       -0.0026
     18 C         143.4736  138.4088  166.2335 C.3     1  UNL1        0.0265
     19 C         144.7081  138.7822  165.4676 C.3     1  UNL1        0.0047
     20 C         145.1871  140.6857  163.7655 C.3     1  UNL1        0.0000
     21 C         144.5896  139.3470  164.0831 C.3     1  UNL1        0.0003
     22 C         138.1910  141.1313  160.6107 C.3     1  UNL1        0.0739
     23 C         137.9577  139.6925  160.2567 C.3     1  UNL1        0.0426
     24 C         139.1109  138.7342  160.2134 C.3     1  UNL1        0.1521
     25 S         139.7113  138.2252  161.4903 S.O2    1  UNL1       -0.0132
     26 O         138.3388  137.9279  162.0172 O.2     1  UNL1       -0.1731
     27 O         141.0838  138.5225  160.9633 O.2     1  UNL1       -0.1731
     28 C         140.3117  137.7161  162.7672 C.3     1  UNL1        0.1107
     29 C         138.9479  137.6694  163.3898 C.3     1  UNL1        0.0236
     30 C         141.6756  137.7628  162.1445 C.3     1  UNL1        0.0236
     31 C         140.9121  137.2071  164.0440 C.3     1  UNL1        0.0236
@<TRIPOS>BOND
     1    20    21    1
     2    21    19    1
     3    19    18    1
     4    18     8    1
     5     8     9   ar
     6     9    10   ar
     7    10     7    1
     8     7     1    1
     9     1     2    1
    10     2     3    1
    11     3     4    1
    12     4    22    1
    13    22    23    1
    14    23    24    1
    15    24    25    1
    16    25    26    2
    17    25    27    2
    18    25    28    1
    19    28    29    1
    20    28    30    1
    21    28    31    1
    22     4     5    1
    23     5     6    1
    24    10    11   ar
    25    11    12   ar
    26    12    13   ar
    27    13    14   ar
    28    14    15   ar
    29    15    16   ar
    30    16    17   ar
    31    17     8   ar
    32     6     1    1
    33    16    11   ar
@<TRIPOS>MOLECULE
*****
 31 33 0 0 0
SMALL
GASTEIGER

@<TRIPOS>ATOM
      1 C         141.7605  143.2751  164.7659 C.3     1  UNL1        0.1688
      2 C         142.6517  142.5924  163.7710 C.3     1  UNL1        0.0609
      3 C         142.5619  142.9470  162.3163 C.3     1  UNL1        0.0758
      4 N         141.5809  143.9845  161.8565 N.3     1  UNL1       -0.2724
      5 C         140.6898  144.6672  162.8513 C.3     1  UNL1        0.0758
      6 C         140.7795  144.3125  164.3060 C.3     1  UNL1        0.0609
      7 O         141.8503  142.9204  166.2205 O.3     1  UNL1       -0.4776
      8 C         139.1994  139.9758  166.4476 C.ar    1  UNL1       -0.0191
      9 C         140.0892  141.0411  165.8790 C.ar    1  UNL1        0.0342
     10 C         140.9604  141.8551  166.7891 C.ar    1  UNL1        0.1555
     11 C         140.9419  141.6038  168.2678 C.ar    1  UNL1        0.1151
     12 N         141.8131  142.4178  169.1779 N.ar    1  UNL1       -0.2408
     13 C         141.7945  142.1664  170.6566 C.ar    1  UNL1        0.0989
     14 C         140.9046  141.1011  171.2251 C.ar    1  UNL1        0.0207
     15 C         140.0334  140.2871  170.3150 C.ar    1  UNL1        0.0032
     16 C         140.0520  140.5385  168.8364 C.ar    1  UNL1        0.0204
     17 C         139.1807  139.7244  167.9262 C.ar    1  UNL1       -0.0026
     18 C         138.3281  139.1618  165.5374 C.3     1  UNL1        0.0265
     19 C         138.7598  137.7883  165.1164 C.3     1  UNL1        0.0047
     20 C         141.2603  137.2847  164.6224 C.3     1  UNL1        0.0000
     21 C         139.8824  137.6228  164.1354 C.3     1  UNL1        0.0003
     22 C         141.4911  144.3392  160.4018 C.3     1  UNL1        0.0739
     23 C         140.7310  143.4536  159.4594 C.3     1  UNL1        0.0426
     24 C         139.2586  143.2418  159.6522 C.3     1  UNL1        0.1521
     25 S         138.7659  142.0420  160.4056 S.O2    1  UNL1       -0.0132
     26 O         137.7377  142.8937  161.0893 O.2     1  UNL1       -0.1731
     27 O         139.7941  141.1904  159.7220 O.2     1  UNL1       -0.1731
     28 C         138.2730  140.8422  161.1591 C.3     1  UNL1        0.1107
     29 C         137.8837  140.1900  159.8657 C.3     1  UNL1        0.0236
     30 C         138.6624  141.4945  162.4525 C.3     1  UNL1        0.0236
     31 C         137.7802  139.6425  161.9125 C.3     1  UNL1        0.0236
@<TRIPOS>BOND
     1    20    21    1
     2    21    19    1
     3    19    18    1
     4    18     8    1
     5     8     9   ar
     6     9    10   ar
     7    10     7    1
     8     7     1    1
     9     1     2    1
    10     2     3    1
    11     3     4    1
    12     4    22    1
    13    22    23    1
    14    23    24    1
    15    24    25    1
    16    25    26    2
    17    25    27    2
    18    25    28    1
    19    28    29    1
    20    28    30    1
    21    28    31    1
    22     4     5    1
    23     5     6    1
    24    10    11   ar
    25    11    12   ar
    26    12    13   ar
    27    13    14   ar
    28    14    15   ar
    29    15    16   ar
    30    16    17   ar
    31    17     8   ar
    32     6     1    1
    33    16    11   ar
@<TRIPOS>MOLECULE
*****
 31 33 0 0 0
SMALL
GASTEIGER

@<TRIPOS>ATOM
      1 C         143.8169  140.2865  164.9514 C.3     1  UNL1        0.1688
      2 C         144.0046  139.5397  163.6641 C.3     1  UNL1        0.0609
      3 C         144.3816  140.2803  162.4154 C.3     1  UNL1        0.0758
      4 N         144.5710  141.7678  162.4539 N.3     1  UNL1       -0.2724
      5 C         144.3833  142.5147  163.7411 C.3     1  UNL1        0.0758
      6 C         144.0063  141.7740  164.9899 C.3     1  UNL1        0.0609
      7 O         143.4399  139.5459  166.2000 O.3     1  UNL1       -0.4776
      8 C         139.4747  139.5199  166.3608 C.ar    1  UNL1       -0.0191
      9 C         140.8721  139.4232  165.8244 C.ar    1  UNL1        0.0342
     10 C         142.0425  139.6427  166.7365 C.ar    1  UNL1        0.1555
     11 C         141.8155  139.9590  168.1851 C.ar    1  UNL1        0.1151
     12 N         142.9858  140.1785  169.0972 N.ar    1  UNL1       -0.2408
     13 C         142.7588  140.4948  170.5458 C.ar    1  UNL1        0.0989
     14 C         141.3613  140.5916  171.0822 C.ar    1  UNL1        0.0207
     15 C         140.1909  140.3721  170.1701 C.ar    1  UNL1        0.0032
     16 C         140.4180  140.0558  168.7216 C.ar    1  UNL1        0.0204
     17 C         139.2476  139.8362  167.8094 C.ar    1  UNL1       -0.0026
     18 C         138.3043  139.3004  165.4486 C.3     1  UNL1        0.0265
     19 C         138.5252  139.1132  163.9768 C.3     1  UNL1        0.0047
     20 C         140.1813  137.6473  162.6136 C.3     1  UNL1        0.0000
     21 C         138.9392  137.7732  163.4451 C.3     1  UNL1        0.0003
     22 C         144.9480  142.5085  161.2052 C.3     1  UNL1        0.0739
     23 C         143.9842  142.5844  160.0583 C.3     1  UNL1        0.0426
     24 C         142.7244  143.3879  160.1892 C.3     1  UNL1        0.1521
     25 S         141.7908  143.1373  161.3361 S.O2    1  UNL1       -0.0132
     26 O         141.5028  141.7655  160.8020 O.2     1  UNL1       -0.1731
     27 O         142.0788  144.5090  161.8703 O.2     1  UNL1       -0.1731
     28 C         140.8572  142.8866  162.4832 C.3     1  UNL1        0.1107
     29 C         140.8534  144.3526  162.8005 C.3     1  UNL1        0.0236
     30 C         140.8609  141.4206  162.1658 C.3     1  UNL1        0.0236
     31 C         139.9236  142.6359  163.6301 C.3     1  UNL1        0.0236
@<TRIPOS>BOND
     1    20    21    1
     2    21    19    1
     3    19    18    1
     4    18     8    1
     5     8     9   ar
     6     9    10   ar
     7    10     7    1
     8     7     1    1
     9     1     2    1
    10     2     3    1
    11     3     4    1
    12     4    22    1
    13    22    23    1
    14    23    24    1
    15    24    25    1
    16    25    26    2
    17    25    27    2
    18    25    28    1
    19    28    29    1
    20    28    30    1
    21    28    31    1
    22     4     5    1
    23     5     6    1
    24    10    11   ar
    25    11    12   ar
    26    12    13   ar
    27    13    14   ar
    28    14    15   ar
    29    15    16   ar
    30    16    17   ar
    31    17     8   ar
    32     6     1    1
    33    16    11   ar
@<TRIPOS>MOLECULE
*****
 31 33 0 0 0
SMALL
GASTEIGER

@<TRIPOS>ATOM
      1 C         139.3314  143.1380  165.0270 C.3     1  UNL1        0.1688
      2 C         138.1729  143.3597  164.1003 C.3     1  UNL1        0.0609
      3 C         138.2914  144.3424  162.9733 C.3     1  UNL1        0.0758
      4 N         139.5683  145.1036  162.7730 N.3     1  UNL1       -0.2724
      5 C         140.7268  144.8819  163.6997 C.3     1  UNL1        0.0758
      6 C         140.6084  143.8991  164.8267 C.3     1  UNL1        0.0609
      7 O         139.2130  142.1552  166.1540 O.3     1  UNL1       -0.4776
      8 C         142.0314  139.3613  166.1669 C.ar    1  UNL1       -0.0191
      9 C         140.8394  140.1702  165.7488 C.ar    1  UNL1        0.0342
     10 C         140.4050  141.3463  166.5721 C.ar    1  UNL1        0.1555
     11 C         141.1625  141.7135  167.8137 C.ar    1  UNL1        0.1151
     12 N         140.7280  142.8897  168.6370 N.ar    1  UNL1       -0.2408
     13 C         141.4855  143.2568  169.8785 C.ar    1  UNL1        0.0989
     14 C         142.6775  142.4479  170.2967 C.ar    1  UNL1        0.0207
     15 C         143.1119  141.2718  169.4733 C.ar    1  UNL1        0.0032
     16 C         142.3544  140.9046  168.2318 C.ar    1  UNL1        0.0204
     17 C         142.7889  139.7285  167.4084 C.ar    1  UNL1       -0.0026
     18 C         142.4659  138.1851  165.3435 C.3     1  UNL1        0.0265
     19 C         142.1578  138.1421  163.8761 C.3     1  UNL1        0.0047
     20 C         139.6904  137.6765  163.2087 C.3     1  UNL1        0.0000
     21 C         141.1069  137.2058  163.3575 C.3     1  UNL1        0.0003
     22 C         139.6868  146.0863  161.6461 C.3     1  UNL1        0.0739
     23 C         140.4335  145.7122  160.4000 C.3     1  UNL1        0.0426
     24 C         140.3761  144.3045  159.8854 C.3     1  UNL1        0.1521
     25 S         141.2827  143.2577  160.4618 S.O2    1  UNL1       -0.0132
     26 O         140.1377  142.2897  160.5049 O.2     1  UNL1       -0.1731
     27 O         142.4277  144.2257  160.4187 O.2     1  UNL1       -0.1731
     28 C         142.1893  142.2108  161.0382 C.3     1  UNL1        0.1107
     29 C         143.3348  142.7660  160.2448 C.3     1  UNL1        0.0236
     30 C         141.0438  141.6556  161.8317 C.3     1  UNL1        0.0236
     31 C         143.0959  141.1640  161.6146 C.3     1  UNL1        0.0236
@<TRIPOS>BOND
     1    20    21    1
     2    21    19    1
     3    19    18    1
     4    18     8    1
     5     8     9   ar
     6     9    10   ar
     7    10     7    1
     8     7     1    1
     9     1     2    1
    10     2     3    1
    11     3     4    1
    12     4    22    1
    13    22    23    1
    14    23    24    1
    15    24    25    1
    16    25    26    2
    17    25    27    2
    18    25    28    1
    19    28    29    1
    20    28    30    1
    21    28    31    1
    22     4     5    1
    23     5     6    1
    24    10    11   ar
    25    11    12   ar
    26    12    13   ar
    27    13    14   ar
    28    14    15   ar
    29    15    16   ar
    30    16    17   ar
    31    17     8   ar
    32     6     1    1
    33    16    11   ar
@<TRIPOS>MOLECULE
*****
 31 33 0 0 0
SMALL
GASTEIGER

@<TRIPOS>ATOM
      1 C         142.8423  141.8377  164.5925 C.3     1  UNL1        0.1688
      2 C         142.8042  143.3326  164.4745 C.3     1  UNL1        0.0609
      3 C         142.7528  143.9771  163.1210 C.3     1  UNL1        0.0758
      4 N         142.7396  143.1266  161.8854 N.3     1  UNL1       -0.2724
      5 C         142.7777  141.6318  162.0034 C.3     1  UNL1        0.0758
      6 C         142.8291  140.9873  163.3570 C.3     1  UNL1        0.0609
      7 O         142.8937  141.1933  165.9460 O.3     1  UNL1       -0.4776
      8 C         139.4507  139.3534  166.6606 C.ar    1  UNL1       -0.0191
      9 C         140.7207  139.7697  165.9794 C.ar    1  UNL1        0.0342
     10 C         141.6238  140.7770  166.6272 C.ar    1  UNL1        0.1555
     11 C         141.2570  141.3681  167.9562 C.ar    1  UNL1        0.1151
     12 N         142.1602  142.3754  168.6040 N.ar    1  UNL1       -0.2408
     13 C         141.7934  142.9664  169.9329 C.ar    1  UNL1        0.0989
     14 C         140.5235  142.5501  170.6141 C.ar    1  UNL1        0.0207
     15 C         139.6203  141.5428  169.9663 C.ar    1  UNL1        0.0032
     16 C         139.9871  140.9518  168.6374 C.ar    1  UNL1        0.0204
     17 C         139.0839  139.9444  167.9896 C.ar    1  UNL1       -0.0026
     18 C         138.5476  138.3461  166.0128 C.3     1  UNL1        0.0265
     19 C         139.0837  137.4304  164.9525 C.3     1  UNL1        0.0047
     20 C         138.7268  139.0580  162.9591 C.3     1  UNL1        0.0000
     21 C         138.7336  137.6639  163.5128 C.3     1  UNL1        0.0003
     22 C         142.6882  143.7710  160.5319 C.3     1  UNL1        0.0739
     23 C         141.3995  144.3464  160.0236 C.3     1  UNL1        0.0426
     24 C         140.1154  143.5954  160.2158 C.3     1  UNL1        0.1521
     25 S         139.3380  143.7526  161.4889 S.O2    1  UNL1       -0.0132
     26 O         139.3013  142.2618  161.6506 O.2     1  UNL1       -0.1731
     27 O         139.3747  145.2434  161.3273 O.2     1  UNL1       -0.1731
     28 C         138.5606  143.9097  162.7622 C.3     1  UNL1        0.1107
     29 C         137.8254  142.6352  162.4705 C.3     1  UNL1        0.0236
     30 C         139.2959  145.1842  163.0539 C.3     1  UNL1        0.0236
     31 C         137.7833  144.0668  164.0353 C.3     1  UNL1        0.0236
@<TRIPOS>BOND
     1    20    21    1
     2    21    19    1
     3    19    18    1
     4    18     8    1
     5     8     9   ar
     6     9    10   ar
     7    10     7    1
     8     7     1    1
     9     1     2    1
    10     2     3    1
    11     3     4    1
    12     4    22    1
    13    22    23    1
    14    23    24    1
    15    24    25    1
    16    25    26    2
    17    25    27    2
    18    25    28    1
    19    28    29    1
    20    28    30    1
    21    28    31    1
    22     4     5    1
    23     5     6    1
    24    10    11   ar
    25    11    12   ar
    26    12    13   ar
    27    13    14   ar
    28    14    15   ar
    29    15    16   ar
    30    16    17   ar
    31    17     8   ar
    32     6     1    1
    33    16    11   ar
@<TRIPOS>MOLECULE
*****
 31 33 0 0 0
SMALL
GASTEIGER

@<TRIPOS>ATOM
      1 C         139.5202  139.3711  164.9172 C.3     1  UNL1        0.1688
      2 C         140.0040  138.5999  163.7250 C.3     1  UNL1        0.0609
      3 C         139.3347  138.7780  162.3945 C.3     1  UNL1        0.0758
      4 N         138.1815  139.7273  162.2561 N.3     1  UNL1       -0.2724
      5 C         137.6977  140.4984  163.4482 C.3     1  UNL1        0.0758
      6 C         138.3670  140.3203  164.7788 C.3     1  UNL1        0.0609
      7 O         140.1895  139.1930  166.2477 O.3     1  UNL1       -0.4776
      8 C         142.9158  142.0757  166.3307 C.ar    1  UNL1       -0.0191
      9 C         141.9841  141.0205  165.8126 C.ar    1  UNL1        0.0342
     10 C         141.1211  140.2482  166.7658 C.ar    1  UNL1        0.1555
     11 C         141.1897  140.5312  168.2373 C.ar    1  UNL1        0.1151
     12 N         140.3266  139.7590  169.1906 N.ar    1  UNL1       -0.2408
     13 C         140.3952  140.0420  170.6620 C.ar    1  UNL1        0.0989
     14 C         141.3268  141.0973  171.1802 C.ar    1  UNL1        0.0207
     15 C         142.1899  141.8695  170.2269 C.ar    1  UNL1        0.0032
     16 C         142.1213  141.5865  168.7555 C.ar    1  UNL1        0.0204
     17 C         142.9844  142.3588  167.8021 C.ar    1  UNL1       -0.0026
     18 C         143.7788  142.8480  165.3774 C.3     1  UNL1        0.0265
     19 C         144.8410  142.1425  164.5873 C.3     1  UNL1        0.0047
     20 C         144.6552  142.7832  162.0764 C.3     1  UNL1        0.0000
     21 C         144.5809  141.7516  163.1628 C.3     1  UNL1        0.0003
     22 C         137.5122  139.9054  160.9256 C.3     1  UNL1        0.0739
     23 C         138.2325  140.6053  159.8114 C.3     1  UNL1        0.0426
     24 C         138.5086  142.0767  159.9044 C.3     1  UNL1        0.1521
     25 S         139.2185  142.6322  161.1034 S.O2    1  UNL1       -0.0132
     26 O         137.9965  143.4260  161.4591 O.2     1  UNL1       -0.1731
     27 O         140.4405  141.8383  160.7477 O.2     1  UNL1       -0.1731
     28 C         139.9283  143.1877  162.3024 C.3     1  UNL1        0.1107
     29 C         140.9848  142.1317  162.1661 C.3     1  UNL1        0.0236
     30 C         138.8719  144.2437  162.4386 C.3     1  UNL1        0.0236
     31 C         140.6382  143.7432  163.5013 C.3     1  UNL1        0.0236
@<TRIPOS>BOND
     1    20    21    1
     2    21    19    1
     3    19    18    1
     4    18     8    1
     5     8     9   ar
     6     9    10   ar
     7    10     7    1
     8     7     1    1
     9     1     2    1
    10     2     3    1
    11     3     4    1
    12     4    22    1
    13    22    23    1
    14    23    24    1
    15    24    25    1
    16    25    26    2
    17    25    27    2
    18    25    28    1
    19    28    29    1
    20    28    30    1
    21    28    31    1
    22     4     5    1
    23     5     6    1
    24    10    11   ar
    25    11    12   ar
    26    12    13   ar
    27    13    14   ar
    28    14    15   ar
    29    15    16   ar
    30    16    17   ar
    31    17     8   ar
    32     6     1    1
    33    16    11   ar
@<TRIPOS>MOLECULE
*****
 31 33 0 0 0
SMALL
GASTEIGER

@<TRIPOS>ATOM
      1 C         143.9551  142.5445  164.7824 C.3     1  UNL1        0.1688
      2 C         144.9834  141.6208  164.1997 C.3     1  UNL1        0.0609
      3 C         145.2632  141.6439  162.7262 C.3     1  UNL1        0.0758
      4 N         144.5148  142.5906  161.8354 N.3     1  UNL1       -0.2724
      5 C         143.4866  143.5143  162.4180 C.3     1  UNL1        0.0758
      6 C         143.2067  143.4913  163.8915 C.3     1  UNL1        0.0609
      7 O         143.6753  142.5215  166.2558 O.3     1  UNL1       -0.4776
      8 C         140.5866  140.0338  166.4012 C.ar    1  UNL1       -0.0191
      9 C         141.7391  140.8328  165.8690 C.ar    1  UNL1        0.0342
     10 C         142.5227  141.7225  166.7879 C.ar    1  UNL1        0.1555
     11 C         142.1538  141.8131  168.2391 C.ar    1  UNL1        0.1151
     12 N         142.9373  142.7028  169.1580 N.ar    1  UNL1       -0.2408
     13 C         142.5684  142.7934  170.6091 C.ar    1  UNL1        0.0989
     14 C         141.4158  141.9944  171.1412 C.ar    1  UNL1        0.0207
     15 C         140.6322  141.1047  170.2223 C.ar    1  UNL1        0.0032
     16 C         141.0012  141.0141  168.7712 C.ar    1  UNL1        0.0204
     17 C         140.2176  140.1244  167.8522 C.ar    1  UNL1       -0.0026
     18 C         139.8030  139.1441  165.4821 C.3     1  UNL1        0.0265
     19 C         138.5059  139.6228  164.9005 C.3     1  UNL1        0.0047
     20 C         137.5303  141.5616  163.4725 C.3     1  UNL1        0.0000
     21 C         138.2765  141.0894  164.6850 C.3     1  UNL1        0.0003
     22 C         144.7946  142.6136  160.3619 C.3     1  UNL1        0.0739
     23 C         143.7875  142.0590  159.3984 C.3     1  UNL1        0.0426
     24 C         143.6261  140.5747  159.2539 C.3     1  UNL1        0.1521
     25 S         143.1429  139.7564  160.4144 S.O2    1  UNL1       -0.0132
     26 O         144.3853  138.9191  160.3413 O.2     1  UNL1       -0.1731
     27 O         141.9005  140.5937  160.4876 O.2     1  UNL1       -0.1731
     28 C         142.6597  138.9380  161.5750 C.3     1  UNL1        0.1107
     29 C         141.8601  140.1078  162.0670 C.3     1  UNL1        0.0236
     30 C         143.4593  137.7682  161.0831 C.3     1  UNL1        0.0236
     31 C         142.1765  138.1197  162.7355 C.3     1  UNL1        0.0236
@<TRIPOS>BOND
     1    20    21    1
     2    21    19    1
     3    19    18    1
     4    18     8    1
     5     8     9   ar
     6     9    10   ar
     7    10     7    1
     8     7     1    1
     9     1     2    1
    10     2     3    1
    11     3     4    1
    12     4    22    1
    13    22    23    1
    14    23    24    1
    15    24    25    1
    16    25    26    2
    17    25    27    2
    18    25    28    1
    19    28    29    1
    20    28    30    1
    21    28    31    1
    22     4     5    1
    23     5     6    1
    24    10    11   ar
    25    11    12   ar
    26    12    13   ar
    27    13    14   ar
    28    14    15   ar
    29    15    16   ar
    30    16    17   ar
    31    17     8   ar
    32     6     1    1
    33    16    11   ar
