@<TRIPOS>MOLECULE
*****
 33 36 0 0 0
SMALL
GASTEIGER

@<TRIPOS>ATOM
      1 N         137.3830  140.2963  161.6692 N.pl3   1  UNL1       -0.2825
      2 H         136.4383  140.1143  161.4601 H       1  UNL1        0.1551
      3 C         140.2585  144.7805  161.4520 C.ar    1  UNL1        0.1776
      4 N         140.7918  145.5047  160.2516 N.ar    1  UNL1       -0.1626
      5 N         140.3772  144.7421  159.0282 N.ar    1  UNL1       -0.2490
      6 C         140.6961  145.1103  157.6095 C.3     1  UNL1        0.1537
      7 C         139.5877  143.5465  159.4726 C.ar    1  UNL1        0.0757
      8 C         138.9262  142.4394  158.7068 C.ar    1  UNL1       -0.0033
      9 C         138.9995  142.4157  157.2088 C.3     1  UNL1        0.0326
     10 C         138.1913  141.3560  159.4390 C.ar    1  UNL1        0.0119
     11 C         138.1180  141.3797  160.9370 C.ar    1  UNL1        0.0503
     12 C         138.7795  142.4869  161.7028 C.ar    1  UNL1        0.0179
     13 C         139.5144  143.5703  160.9707 C.ar    1  UNL1        0.0440
     14 C         140.4379  145.1939  162.8827 C.2     1  UNL1        0.3610
     15 O         141.7971  145.5776  163.3878 O.2     1  UNL1       -0.2431
     16 C         139.2234  144.3243  165.0086 C.3     1  UNL1        0.2560
     17 O         139.2579  145.2235  163.8085 O.3     1  UNL1       -0.4402
     18 C         138.0874  139.4901  162.7198 C.ar    1  UNL1        0.2207
     19 N         138.5207  138.0852  162.4221 N.ar    1  UNL1       -0.2120
     20 C         139.2252  137.2790  163.4728 C.ar    1  UNL1        0.1034
     21 C         139.4963  137.8777  164.8211 C.ar    1  UNL1        0.0415
     22 C         139.0630  139.2825  165.1188 C.ar    1  UNL1        0.1050
     23 N         138.3586  140.0887  164.0682 N.ar    1  UNL1       -0.2120
     24 C         139.3341  139.8812  166.4672 C.ar    1  UNL1        0.1198
     25 C         140.2229  141.0565  166.7474 C.ar    1  UNL1        0.0381
     26 C         140.2021  141.3114  168.2255 C.ar    1  UNL1        0.0734
     27 N         139.3004  140.2935  168.8587 N.ar    1  UNL1       -0.2515
     28 C         138.9897  140.1796  170.3217 C.3     1  UNL1        0.1534
     29 N         138.7639  139.4096  167.7720 N.ar    1  UNL1       -0.1680
     30 C         140.9514  142.3940  168.9441 C.3     1  UNL1        0.1184
     31 N         142.2511  142.0817  169.6249 N.3     1  UNL1       -0.2652
     32 C         142.9196  140.7588  169.3944 C.3     1  UNL1        0.0900
     33 C         142.8823  143.0924  170.5361 C.3     1  UNL1        0.0900
@<TRIPOS>BOND
     1    16    17    1
     2    17    14    1
     3    14    15    2
     4    14     3    1
     5     3     4   ar
     6     4     5   ar
     7     5     6    1
     8     5     7   ar
     9     7     8   ar
    10     8     9    1
    11     8    10   ar
    12    10    11   ar
    13    11     1    1
    14     1    18    1
    15    18    19   ar
    16    19    20   ar
    17    20    21   ar
    18    21    22   ar
    19    22    24    1
    20    24    25   ar
    21    25    26   ar
    22    26    30    1
    23    30    31    1
    24    31    32    1
    25    31    33    1
    26    26    27   ar
    27    27    28    1
    28    27    29   ar
    29    22    23   ar
    30    11    12   ar
    31    12    13   ar
    32    13     3   ar
    33    13     7   ar
    34    23    18   ar
    35    29    24   ar
    36     1     2    1
@<TRIPOS>MOLECULE
*****
 33 36 0 0 0
SMALL
GASTEIGER

@<TRIPOS>ATOM
      1 N         141.1466  141.5326  164.3333 N.pl3   1  UNL1       -0.2825
      2 H         141.0022  142.4213  163.9352 H       1  UNL1        0.1551
      3 C         140.4678  142.2025  169.5787 C.ar    1  UNL1        0.1776
      4 N         139.5738  141.4512  170.5201 N.ar    1  UNL1       -0.1626
      5 N         138.8411  140.4077  169.7300 N.ar    1  UNL1       -0.2490
      6 C         137.8425  139.4295  170.2740 C.3     1  UNL1        0.1537
      7 C         139.2822  140.5142  168.3002 C.ar    1  UNL1        0.0757
      8 C         138.8982  139.7444  167.0715 C.ar    1  UNL1       -0.0033
      9 C         137.8928  138.6352  167.1650 C.3     1  UNL1        0.0326
     10 C         139.5197  140.0839  165.7492 C.ar    1  UNL1        0.0119
     11 C         140.5251  141.1931  165.6557 C.ar    1  UNL1        0.0503
     12 C         140.9090  141.9629  166.8844 C.ar    1  UNL1        0.0179
     13 C         140.2876  141.6234  168.2067 C.ar    1  UNL1        0.0440
     14 C         141.3816  143.3342  169.9449 C.2     1  UNL1        0.3610
     15 O         140.8093  144.6678  170.3242 O.2     1  UNL1       -0.2431
     16 C         143.4360  141.7473  169.8369 C.3     1  UNL1        0.2560
     17 O         142.8680  143.1324  169.9317 O.3     1  UNL1       -0.4402
     18 C         141.9880  140.5179  163.6175 C.ar    1  UNL1        0.2207
     19 N         143.2047  139.9478  164.2843 N.ar    1  UNL1       -0.2120
     20 C         144.0462  138.9331  163.5684 C.ar    1  UNL1        0.1034
     21 C         143.6709  138.4885  162.1859 C.ar    1  UNL1        0.0415
     22 C         142.4542  139.0586  161.5191 C.ar    1  UNL1        0.1050
     23 N         141.6127  140.0733  162.2349 N.ar    1  UNL1       -0.2120
     24 C         142.0789  138.6140  160.1365 C.ar    1  UNL1        0.1198
     25 C         142.9874  137.9439  159.1488 C.ar    1  UNL1        0.0381
     26 C         142.1992  137.6772  157.9008 C.ar    1  UNL1        0.0734
     27 N         140.8035  138.1826  158.1172 N.ar    1  UNL1       -0.2515
     28 C         139.6795  138.1200  157.1258 C.3     1  UNL1        0.1534
     29 N         140.7292  138.7616  159.4990 N.ar    1  UNL1       -0.1680
     30 C         142.7159  137.0206  156.6551 C.3     1  UNL1        0.1184
     31 N         142.5131  135.5495  156.4434 N.3     1  UNL1       -0.2652
     32 C         141.4986  135.0677  155.4490 C.3     1  UNL1        0.0900
     33 C         143.3249  134.5602  157.2260 C.3     1  UNL1        0.0900
@<TRIPOS>BOND
     1    16    17    1
     2    17    14    1
     3    14    15    2
     4    14     3    1
     5     3     4   ar
     6     4     5   ar
     7     5     6    1
     8     5     7   ar
     9     7     8   ar
    10     8     9    1
    11     8    10   ar
    12    10    11   ar
    13    11     1    1
    14     1    18    1
    15    18    19   ar
    16    19    20   ar
    17    20    21   ar
    18    21    22   ar
    19    22    24    1
    20    24    25   ar
    21    25    26   ar
    22    26    30    1
    23    30    31    1
    24    31    32    1
    25    31    33    1
    26    26    27   ar
    27    27    28    1
    28    27    29   ar
    29    22    23   ar
    30    11    12   ar
    31    12    13   ar
    32    13     3   ar
    33    13     7   ar
    34    23    18   ar
    35    29    24   ar
    36     1     2    1
@<TRIPOS>MOLECULE
*****
 33 36 0 0 0
SMALL
GASTEIGER

@<TRIPOS>ATOM
      1 N         142.2631  145.0334  161.7164 N.pl3   1  UNL1       -0.2825
      2 H         142.2967  145.9827  161.9751 H       1  UNL1        0.1551
      3 C         138.5826  141.7804  159.6438 C.ar    1  UNL1        0.1776
      4 N         137.9227  141.8347  158.2979 N.ar    1  UNL1       -0.1626
      5 N         138.4779  143.0148  157.5569 N.ar    1  UNL1       -0.2490
      6 C         138.0969  143.4445  156.1711 C.3     1  UNL1        0.1537
      7 C         139.4808  143.6898  158.4448 C.ar    1  UNL1        0.0757
      8 C         140.3435  144.9006  158.2455 C.ar    1  UNL1       -0.0033
      9 C         140.2788  145.6635  156.9556 C.3     1  UNL1        0.0326
     10 C         141.2709  145.3484  159.3360 C.ar    1  UNL1        0.0119
     11 C         141.3357  144.5855  160.6259 C.ar    1  UNL1        0.0503
     12 C         140.4730  143.3747  160.8252 C.ar    1  UNL1        0.0179
     13 C         139.5456  142.9269  159.7347 C.ar    1  UNL1        0.0440
     14 C         138.3248  140.7588  160.7116 C.2     1  UNL1        0.3610
     15 O         139.0917  139.4698  160.7172 O.2     1  UNL1       -0.2431
     16 C         137.5910  142.0138  162.8650 C.3     1  UNL1        0.2560
     17 O         137.3000  141.0265  161.7739 O.3     1  UNL1       -0.4402
     18 C         143.1394  144.0349  162.4129 C.ar    1  UNL1        0.2207
     19 N         144.3403  143.4728  161.7114 N.ar    1  UNL1       -0.2120
     20 C         145.2166  142.4743  162.4079 C.ar    1  UNL1        0.1034
     21 C         144.8920  142.0378  163.8058 C.ar    1  UNL1        0.0415
     22 C         143.6911  142.5998  164.5072 C.ar    1  UNL1        0.1050
     23 N         142.8148  143.5983  163.8108 N.ar    1  UNL1       -0.2120
     24 C         143.3665  142.1634  165.9051 C.ar    1  UNL1        0.1198
     25 C         142.6699  140.8927  166.2927 C.ar    1  UNL1        0.0381
     26 C         142.5544  140.8649  167.7880 C.ar    1  UNL1        0.0734
     27 N         143.1797  142.1184  168.3245 N.ar    1  UNL1       -0.2515
     28 C         143.2846  142.5021  169.7708 C.3     1  UNL1        0.1534
     29 N         143.6816  142.9209  167.1608 N.ar    1  UNL1       -0.1680
     30 C         141.9243  139.7751  168.6035 C.3     1  UNL1        0.1184
     31 N         140.5315  139.9450  169.1340 N.3     1  UNL1       -0.2652
     32 C         139.3636  139.9315  168.1929 C.3     1  UNL1        0.0900
     33 C         140.3067  140.1284  170.6058 C.3     1  UNL1        0.0900
@<TRIPOS>BOND
     1    16    17    1
     2    17    14    1
     3    14    15    2
     4    14     3    1
     5     3     4   ar
     6     4     5   ar
     7     5     6    1
     8     5     7   ar
     9     7     8   ar
    10     8     9    1
    11     8    10   ar
    12    10    11   ar
    13    11     1    1
    14     1    18    1
    15    18    19   ar
    16    19    20   ar
    17    20    21   ar
    18    21    22   ar
    19    22    24    1
    20    24    25   ar
    21    25    26   ar
    22    26    30    1
    23    30    31    1
    24    31    32    1
    25    31    33    1
    26    26    27   ar
    27    27    28    1
    28    27    29   ar
    29    22    23   ar
    30    11    12   ar
    31    12    13   ar
    32    13     3   ar
    33    13     7   ar
    34    23    18   ar
    35    29    24   ar
    36     1     2    1
@<TRIPOS>MOLECULE
*****
 33 36 0 0 0
SMALL
GASTEIGER

@<TRIPOS>ATOM
      1 N         142.7824  142.5259  164.3785 N.pl3   1  UNL1       -0.2825
      2 H         143.6457  142.2212  164.0163 H       1  UNL1        0.1551
      3 C         139.4893  139.9486  167.6856 C.ar    1  UNL1        0.1776
      4 N         139.5573  139.8214  169.1787 N.ar    1  UNL1       -0.1626
      5 N         140.7661  140.5722  169.6532 N.ar    1  UNL1       -0.2490
      6 C         141.2168  140.7080  171.0774 C.3     1  UNL1        0.1537
      7 C         141.4451  141.1635  168.4534 C.ar    1  UNL1        0.0757
      8 C         142.6800  142.0030  168.3112 C.ar    1  UNL1       -0.0033
      9 C         143.4691  142.3884  169.5272 C.3     1  UNL1        0.0326
     10 C         143.1257  142.4571  166.9529 C.ar    1  UNL1        0.0119
     11 C         142.3366  142.0717  165.7368 C.ar    1  UNL1        0.0503
     12 C         141.1017  141.2322  165.8791 C.ar    1  UNL1        0.0179
     13 C         140.6560  140.7781  167.2374 C.ar    1  UNL1        0.0440
     14 C         138.4390  139.3513  166.7968 C.2     1  UNL1        0.3610
     15 O         137.6715  138.1445  167.2490 O.2     1  UNL1       -0.2431
     16 C         138.4794  139.2012  164.2033 C.3     1  UNL1        0.2560
     17 O         138.1561  139.9609  165.4557 O.3     1  UNL1       -0.4402
     18 C         141.9129  143.4442  163.5719 C.ar    1  UNL1        0.2207
     19 N         140.8505  144.2582  164.2492 N.ar    1  UNL1       -0.2120
     20 C         139.9809  145.1765  163.4426 C.ar    1  UNL1        0.1034
     21 C         140.1738  145.2809  161.9587 C.ar    1  UNL1        0.0415
     22 C         141.2362  144.4668  161.2814 C.ar    1  UNL1        0.1050
     23 N         142.1057  143.5485  162.0880 N.ar    1  UNL1       -0.2120
     24 C         141.4290  144.5712  159.7976 C.ar    1  UNL1        0.1198
     25 C         140.7994  145.5915  158.8961 C.ar    1  UNL1        0.0381
     26 C         141.2666  145.3244  157.4960 C.ar    1  UNL1        0.0734
     27 N         142.1851  144.1390  157.5321 N.ar    1  UNL1       -0.2515
     28 C         142.8810  143.5266  156.3528 C.3     1  UNL1        0.1534
     29 N         142.2855  143.6735  158.9545 N.ar    1  UNL1       -0.1680
     30 C         140.8828  146.1055  156.2744 C.3     1  UNL1        0.1184
     31 N         139.4454  146.4587  156.0309 N.3     1  UNL1       -0.2652
     32 C         138.5210  145.4539  155.4099 C.3     1  UNL1        0.0900
     33 C         138.9325  147.8169  156.4085 C.3     1  UNL1        0.0900
@<TRIPOS>BOND
     1    16    17    1
     2    17    14    1
     3    14    15    2
     4    14     3    1
     5     3     4   ar
     6     4     5   ar
     7     5     6    1
     8     5     7   ar
     9     7     8   ar
    10     8     9    1
    11     8    10   ar
    12    10    11   ar
    13    11     1    1
    14     1    18    1
    15    18    19   ar
    16    19    20   ar
    17    20    21   ar
    18    21    22   ar
    19    22    24    1
    20    24    25   ar
    21    25    26   ar
    22    26    30    1
    23    30    31    1
    24    31    32    1
    25    31    33    1
    26    26    27   ar
    27    27    28    1
    28    27    29   ar
    29    22    23   ar
    30    11    12   ar
    31    12    13   ar
    32    13     3   ar
    33    13     7   ar
    34    23    18   ar
    35    29    24   ar
    36     1     2    1
@<TRIPOS>MOLECULE
*****
 33 36 0 0 0
SMALL
GASTEIGER

@<TRIPOS>ATOM
      1 N         143.4098  137.9477  162.3012 N.pl3   1  UNL1       -0.2825
      2 H         144.0499  137.2292  162.5091 H       1  UNL1        0.1551
      3 C         138.8000  139.9480  164.0825 C.ar    1  UNL1        0.1776
      4 N         138.4248  140.3649  165.4737 N.ar    1  UNL1       -0.1626
      5 N         139.6081  140.1261  166.3641 N.ar    1  UNL1       -0.2490
      6 C         139.6735  140.4032  167.8368 C.3     1  UNL1        0.1537
      7 C         140.7146  139.5617  165.5232 C.ar    1  UNL1        0.0757
      8 C         142.1124  139.1338  165.8593 C.ar    1  UNL1       -0.0033
      9 C         142.6119  139.2439  167.2695 C.3     1  UNL1        0.0326
     10 C         143.0108  138.5958  164.7854 C.ar    1  UNL1        0.0119
     11 C         142.5113  138.4858  163.3752 C.ar    1  UNL1        0.0503
     12 C         141.1135  138.9137  163.0391 C.ar    1  UNL1        0.0179
     13 C         140.2152  139.4517  164.1131 C.ar    1  UNL1        0.0440
     14 C         137.9154  140.0156  162.8730 C.2     1  UNL1        0.3610
     15 O         137.7957  138.8286  161.9640 O.2     1  UNL1       -0.2431
     16 C         137.8773  142.5736  162.4194 C.3     1  UNL1        0.2560
     17 O         137.1503  141.2705  162.5726 O.3     1  UNL1       -0.4402
     18 C         143.3329  138.5044  160.9105 C.ar    1  UNL1        0.2207
     19 N         143.6890  139.9392  160.6562 N.ar    1  UNL1       -0.2120
     20 C         143.6121  140.4959  159.2654 C.ar    1  UNL1        0.1034
     21 C         143.1791  139.6178  158.1290 C.ar    1  UNL1        0.0415
     22 C         142.8230  138.1831  158.3833 C.ar    1  UNL1        0.1050
     23 N         142.8999  137.6264  159.7740 N.ar    1  UNL1       -0.2120
     24 C         142.3900  137.3050  157.2469 C.ar    1  UNL1        0.1198
     25 C         142.9970  135.9858  156.8712 C.ar    1  UNL1        0.0381
     26 C         142.2562  135.4574  155.6787 C.ar    1  UNL1        0.0734
     27 N         141.1913  136.4502  155.3174 N.ar    1  UNL1       -0.2515
     28 C         140.2151  136.3234  154.1856 C.3     1  UNL1        0.1534
     29 N         141.2740  137.5921  156.2866 N.ar    1  UNL1       -0.1680
     30 C         142.5318  134.1636  154.9716 C.3     1  UNL1        0.1184
     31 N         142.1533  132.8622  155.6144 N.3     1  UNL1       -0.2652
     32 C         142.8884  132.3853  156.8319 C.3     1  UNL1        0.0900
     33 C         141.0397  132.0377  155.0397 C.3     1  UNL1        0.0900
@<TRIPOS>BOND
     1    16    17    1
     2    17    14    1
     3    14    15    2
     4    14     3    1
     5     3     4   ar
     6     4     5   ar
     7     5     6    1
     8     5     7   ar
     9     7     8   ar
    10     8     9    1
    11     8    10   ar
    12    10    11   ar
    13    11     1    1
    14     1    18    1
    15    18    19   ar
    16    19    20   ar
    17    20    21   ar
    18    21    22   ar
    19    22    24    1
    20    24    25   ar
    21    25    26   ar
    22    26    30    1
    23    30    31    1
    24    31    32    1
    25    31    33    1
    26    26    27   ar
    27    27    28    1
    28    27    29   ar
    29    22    23   ar
    30    11    12   ar
    31    12    13   ar
    32    13     3   ar
    33    13     7   ar
    34    23    18   ar
    35    29    24   ar
    36     1     2    1
@<TRIPOS>MOLECULE
*****
 33 36 0 0 0
SMALL
GASTEIGER

@<TRIPOS>ATOM
      1 N         143.7136  143.8259  162.9577 N.pl3   1  UNL1       -0.2825
      2 H         144.6266  144.1664  162.8175 H       1  UNL1        0.1551
      3 C         142.7076  138.7691  164.3147 C.ar    1  UNL1        0.1776
      4 N         142.5370  138.1726  165.6803 N.ar    1  UNL1       -0.1626
      5 N         142.6991  139.2706  166.6893 N.ar    1  UNL1       -0.2490
      6 C         142.6066  139.1199  168.1789 C.3     1  UNL1        0.1537
      7 C         142.9701  140.5457  165.9473 C.ar    1  UNL1        0.0757
      8 C         143.2126  141.9490  166.4184 C.ar    1  UNL1       -0.0033
      9 C         143.2074  142.2589  167.8860 C.3     1  UNL1        0.0326
     10 C         143.4605  143.0423  165.4219 C.ar    1  UNL1        0.0119
     11 C         143.4657  142.7324  163.9542 C.ar    1  UNL1        0.0503
     12 C         143.2232  141.3292  163.4831 C.ar    1  UNL1        0.0179
     13 C         142.9753  140.2358  164.4797 C.ar    1  UNL1        0.0440
     14 C         142.6252  138.0290  163.0126 C.2     1  UNL1        0.3610
     15 O         141.3646  137.3073  162.6387 O.2     1  UNL1       -0.2431
     16 C         143.8050  138.8732  160.8573 C.3     1  UNL1        0.2560
     17 O         143.8034  138.0106  162.0844 O.3     1  UNL1       -0.4402
     18 C         142.5704  144.4003  162.1747 C.ar    1  UNL1        0.2207
     19 N         141.3570  144.9174  162.8890 N.ar    1  UNL1       -0.2120
     20 C         140.2138  145.4919  162.1060 C.ar    1  UNL1        0.1034
     21 C         140.2840  145.5492  160.6088 C.ar    1  UNL1        0.0415
     22 C         141.4974  145.0321  159.8945 C.ar    1  UNL1        0.1050
     23 N         142.6406  144.4577  160.6774 N.ar    1  UNL1       -0.2120
     24 C         141.5676  145.0894  158.3972 C.ar    1  UNL1        0.1198
     25 C         140.6378  145.8507  157.4995 C.ar    1  UNL1        0.0381
     26 C         141.0755  145.6273  156.0822 C.ar    1  UNL1        0.0734
     27 N         142.2759  144.7280  156.1042 N.ar    1  UNL1       -0.2515
     28 C         143.0383  144.2458  154.9057 C.3     1  UNL1        0.1534
     29 N         142.5800  144.3956  157.5349 N.ar    1  UNL1       -0.1680
     30 C         140.4268  146.2022  154.8581 C.3     1  UNL1        0.1184
     31 N         139.0476  146.7858  154.9440 N.3     1  UNL1       -0.2652
     32 C         138.8677  148.2691  155.0760 C.3     1  UNL1        0.0900
     33 C         137.8483  145.8859  154.8979 C.3     1  UNL1        0.0900
@<TRIPOS>BOND
     1    16    17    1
     2    17    14    1
     3    14    15    2
     4    14     3    1
     5     3     4   ar
     6     4     5   ar
     7     5     6    1
     8     5     7   ar
     9     7     8   ar
    10     8     9    1
    11     8    10   ar
    12    10    11   ar
    13    11     1    1
    14     1    18    1
    15    18    19   ar
    16    19    20   ar
    17    20    21   ar
    18    21    22   ar
    19    22    24    1
    20    24    25   ar
    21    25    26   ar
    22    26    30    1
    23    30    31    1
    24    31    32    1
    25    31    33    1
    26    26    27   ar
    27    27    28    1
    28    27    29   ar
    29    22    23   ar
    30    11    12   ar
    31    12    13   ar
    32    13     3   ar
    33    13     7   ar
    34    23    18   ar
    35    29    24   ar
    36     1     2    1
@<TRIPOS>MOLECULE
*****
 33 36 0 0 0
SMALL
GASTEIGER

@<TRIPOS>ATOM
      1 N         138.9222  138.8829  164.8844 N.pl3   1  UNL1       -0.2825
      2 H         138.6001  137.9643  165.0319 H       1  UNL1        0.1551
      3 C         142.8427  141.9206  166.8403 C.ar    1  UNL1        0.1776
      4 N         143.0451  142.4170  168.2413 N.ar    1  UNL1       -0.1626
      5 N         141.9125  141.9066  169.0820 N.ar    1  UNL1       -0.2490
      6 C         141.7166  142.1631  170.5468 C.3     1  UNL1        0.1537
      7 C         141.0101  141.0949  168.2006 C.ar    1  UNL1        0.0757
      8 C         139.7393  140.3489  168.4807 C.ar    1  UNL1       -0.0033
      9 C         139.1644  140.3403  169.8661 C.3     1  UNL1        0.0326
     10 C         139.0433  139.6116  167.3753 C.ar    1  UNL1        0.0119
     11 C         139.6182  139.6202  165.9898 C.ar    1  UNL1        0.0503
     12 C         140.8891  140.3661  165.7098 C.ar    1  UNL1        0.0179
     13 C         141.5850  141.1035  166.8152 C.ar    1  UNL1        0.0440
     14 C         143.7404  142.1934  165.6700 C.2     1  UNL1        0.3610
     15 O         144.1438  141.0737  164.7571 O.2     1  UNL1       -0.2431
     16 C         143.9856  144.2366  164.0840 C.3     1  UNL1        0.2560
     17 O         144.2346  143.5861  165.4124 O.3     1  UNL1       -0.4402
     18 C         138.7169  139.5450  163.5542 C.ar    1  UNL1        0.2207
     19 N         137.8691  140.7783  163.4532 N.ar    1  UNL1       -0.2120
     20 C         137.6639  141.4404  162.1229 C.ar    1  UNL1        0.1034
     21 C         138.3065  140.8693  160.8938 C.ar    1  UNL1        0.0415
     22 C         139.1543  139.6360  160.9948 C.ar    1  UNL1        0.1050
     23 N         139.3596  138.9739  162.3250 N.ar    1  UNL1       -0.2120
     24 C         139.7969  139.0649  159.7657 C.ar    1  UNL1        0.1198
     25 C         141.1971  138.5357  159.6676 C.ar    1  UNL1        0.0381
     26 C         141.4177  138.0664  158.2601 C.ar    1  UNL1        0.0734
     27 N         140.1539  138.3056  157.4883 N.ar    1  UNL1       -0.2515
     28 C         139.9310  137.9841  156.0402 C.3     1  UNL1        0.1534
     29 N         139.1522  138.9226  158.4188 N.ar    1  UNL1       -0.1680
     30 C         142.6804  137.4638  157.7194 C.3     1  UNL1        0.1184
     31 N         143.4303  138.1552  156.6195 N.3     1  UNL1       -0.2652
     32 C         143.5085  139.6528  156.5914 C.3     1  UNL1        0.0900
     33 C         144.1020  137.3488  155.5477 C.3     1  UNL1        0.0900
@<TRIPOS>BOND
     1    16    17    1
     2    17    14    1
     3    14    15    2
     4    14     3    1
     5     3     4   ar
     6     4     5   ar
     7     5     6    1
     8     5     7   ar
     9     7     8   ar
    10     8     9    1
    11     8    10   ar
    12    10    11   ar
    13    11     1    1
    14     1    18    1
    15    18    19   ar
    16    19    20   ar
    17    20    21   ar
    18    21    22   ar
    19    22    24    1
    20    24    25   ar
    21    25    26   ar
    22    26    30    1
    23    30    31    1
    24    31    32    1
    25    31    33    1
    26    26    27   ar
    27    27    28    1
    28    27    29   ar
    29    22    23   ar
    30    11    12   ar
    31    12    13   ar
    32    13     3   ar
    33    13     7   ar
    34    23    18   ar
    35    29    24   ar
    36     1     2    1
@<TRIPOS>MOLECULE
*****
 33 36 0 0 0
SMALL
GASTEIGER

@<TRIPOS>ATOM
      1 N         142.0991  143.3683  164.7275 N.pl3   1  UNL1       -0.2825
      2 H         142.1897  144.2527  165.1503 H       1  UNL1        0.1551
      3 C         139.8172  140.8491  168.8349 C.ar    1  UNL1        0.1776
      4 N         138.8234  139.7256  168.8212 N.ar    1  UNL1       -0.1626
      5 N         138.5354  139.3791  167.3905 N.ar    1  UNL1       -0.2490
      6 C         137.5964  138.3108  166.9139 C.3     1  UNL1        0.1537
      7 C         139.3511  140.2884  166.5200 C.ar    1  UNL1        0.0757
      8 C         139.4749  140.4064  165.0298 C.ar    1  UNL1       -0.0033
      9 C         138.6827  139.4979  164.1371 C.3     1  UNL1        0.0326
     10 C         140.3909  141.4330  164.4324 C.ar    1  UNL1        0.0119
     11 C         141.1831  142.3416  165.3251 C.ar    1  UNL1        0.0503
     12 C         141.0593  142.2236  166.8153 C.ar    1  UNL1        0.0179
     13 C         140.1433  141.1969  167.4127 C.ar    1  UNL1        0.0440
     14 C         140.3851  141.5090  170.0564 C.2     1  UNL1        0.3610
     15 O         139.4781  142.2266  171.0115 O.2     1  UNL1       -0.2431
     16 C         142.6750  142.7106  170.3071 C.3     1  UNL1        0.2560
     17 O         141.8602  141.4513  170.3228 O.3     1  UNL1       -0.4402
     18 C         142.8770  143.0473  163.4859 C.ar    1  UNL1        0.2207
     19 N         144.1513  142.2617  163.5812 N.ar    1  UNL1       -0.2120
     20 C         144.9292  141.9408  162.3394 C.ar    1  UNL1        0.1034
     21 C         144.4328  142.4054  161.0024 C.ar    1  UNL1        0.0415
     22 C         143.1585  143.1910  160.9071 C.ar    1  UNL1        0.1050
     23 N         142.3806  143.5119  162.1487 N.ar    1  UNL1       -0.2120
     24 C         142.6621  143.6556  159.5700 C.ar    1  UNL1        0.1198
     25 C         141.4446  144.4969  159.3252 C.ar    1  UNL1        0.0381
     26 C         141.3261  144.7218  157.8469 C.ar    1  UNL1        0.0734
     27 N         142.4705  144.0195  157.1781 N.ar    1  UNL1       -0.2515
     28 C         142.7415  143.9826  155.7032 C.3     1  UNL1        0.1534
     29 N         143.2961  143.3606  158.2430 N.ar    1  UNL1       -0.1680
     30 C         140.2519  145.5104  157.1584 C.3     1  UNL1        0.1184
     31 N         139.2208  144.8065  156.3269 N.3     1  UNL1       -0.2652
     32 C         138.4391  145.5685  155.2982 C.3     1  UNL1        0.0900
     33 C         138.9713  143.3406  156.5243 C.3     1  UNL1        0.0900
@<TRIPOS>BOND
     1    16    17    1
     2    17    14    1
     3    14    15    2
     4    14     3    1
     5     3     4   ar
     6     4     5   ar
     7     5     6    1
     8     5     7   ar
     9     7     8   ar
    10     8     9    1
    11     8    10   ar
    12    10    11   ar
    13    11     1    1
    14     1    18    1
    15    18    19   ar
    16    19    20   ar
    17    20    21   ar
    18    21    22   ar
    19    22    24    1
    20    24    25   ar
    21    25    26   ar
    22    26    30    1
    23    30    31    1
    24    31    32    1
    25    31    33    1
    26    26    27   ar
    27    27    28    1
    28    27    29   ar
    29    22    23   ar
    30    11    12   ar
    31    12    13   ar
    32    13     3   ar
    33    13     7   ar
    34    23    18   ar
    35    29    24   ar
    36     1     2    1
@<TRIPOS>MOLECULE
*****
 33 36 0 0 0
SMALL
GASTEIGER

@<TRIPOS>ATOM
      1 N         143.0103  142.8840  164.5643 N.pl3   1  UNL1       -0.2825
      2 H         143.8716  143.1170  164.1483 H       1  UNL1        0.1551
      3 C         142.5397  141.9530  169.7926 C.ar    1  UNL1        0.1776
      4 N         142.5998  140.6481  170.5300 N.ar    1  UNL1       -0.1626
      5 N         142.8271  139.5580  169.5250 N.ar    1  UNL1       -0.2490
      6 C         142.9521  138.0937  169.8257 C.3     1  UNL1        0.1537
      7 C         142.9074  140.1891  168.1666 C.ar    1  UNL1        0.0757
      8 C         143.1194  139.6071  166.8005 C.ar    1  UNL1       -0.0033
      9 C         143.2970  138.1269  166.6351 C.3     1  UNL1        0.0326
     10 C         143.1536  140.5054  165.5997 C.ar    1  UNL1        0.0119
     11 C         142.9760  141.9857  165.7651 C.ar    1  UNL1        0.0503
     12 C         142.7641  142.5676  167.1312 C.ar    1  UNL1        0.0179
     13 C         142.7298  141.6693  168.3320 C.ar    1  UNL1        0.0440
     14 C         142.3268  143.3044  170.4079 C.2     1  UNL1        0.3610
     15 O         143.4697  144.0159  171.0691 O.2     1  UNL1       -0.2431
     16 C         139.7447  143.1238  170.6333 C.3     1  UNL1        0.2560
     17 O         140.9708  143.9442  170.3618 O.3     1  UNL1       -0.4402
     18 C         141.7323  143.4272  163.9973 C.ar    1  UNL1        0.2207
     19 N         140.6142  143.8251  164.9146 N.ar    1  UNL1       -0.2120
     20 C         139.3361  144.3684  164.3475 C.ar    1  UNL1        0.1034
     21 C         139.1762  144.5137  162.8632 C.ar    1  UNL1        0.0415
     22 C         140.2943  144.1159  161.9459 C.ar    1  UNL1        0.1050
     23 N         141.5724  143.5726  162.5129 N.ar    1  UNL1       -0.2120
     24 C         140.1345  144.2612  160.4616 C.ar    1  UNL1        0.1198
     25 C         139.7240  143.1779  159.5087 C.ar    1  UNL1        0.0381
     26 C         139.6928  143.7626  158.1277 C.ar    1  UNL1        0.0734
     27 N         140.0840  145.2073  158.2271 N.ar    1  UNL1       -0.2515
     28 C         140.1846  146.1741  157.0846 C.3     1  UNL1        0.1534
     29 N         140.3570  145.5154  159.6695 N.ar    1  UNL1       -0.1680
     30 C         139.3336  143.0311  156.8684 C.3     1  UNL1        0.1184
     31 N         137.9106  143.0079  156.3945 N.3     1  UNL1       -0.2652
     32 C         137.3903  144.1168  155.5287 C.3     1  UNL1        0.0900
     33 C         137.0079  141.8757  156.7863 C.3     1  UNL1        0.0900
@<TRIPOS>BOND
     1    16    17    1
     2    17    14    1
     3    14    15    2
     4    14     3    1
     5     3     4   ar
     6     4     5   ar
     7     5     6    1
     8     5     7   ar
     9     7     8   ar
    10     8     9    1
    11     8    10   ar
    12    10    11   ar
    13    11     1    1
    14     1    18    1
    15    18    19   ar
    16    19    20   ar
    17    20    21   ar
    18    21    22   ar
    19    22    24    1
    20    24    25   ar
    21    25    26   ar
    22    26    30    1
    23    30    31    1
    24    31    32    1
    25    31    33    1
    26    26    27   ar
    27    27    28    1
    28    27    29   ar
    29    22    23   ar
    30    11    12   ar
    31    12    13   ar
    32    13     3   ar
    33    13     7   ar
    34    23    18   ar
    35    29    24   ar
    36     1     2    1
