@<TRIPOS>MOLECULE
*****
 30 32 0 0 0
SMALL
GASTEIGER

@<TRIPOS>ATOM
      1 C         139.3130  140.7247  163.1473 C.ar    1  UNL1       -0.0197
      2 C         138.2394  140.2321  164.0717 C.ar    1  UNL1       -0.0042
      3 C         138.4521  140.2703  165.5560 C.ar    1  UNL1       -0.0003
      4 C         139.7385  140.8012  166.1159 C.ar    1  UNL1        0.0000
      5 C         140.8121  141.2938  165.1915 C.ar    1  UNL1       -0.0003
      6 C         140.5994  141.2556  163.7072 C.ar    1  UNL1       -0.0042
      7 C         138.3460  141.6997  160.8539 C.3     1  UNL1        0.0964
      8 C         138.3841  141.2677  159.4180 C.3     1  UNL1        0.0901
      9 N         139.1620  139.9876  159.3394 N.3     1  UNL1       -0.2700
     10 C         139.4473  139.2042  158.0925 C.3     1  UNL1        0.0897
     11 C         139.6047  139.6284  160.7269 C.3     1  UNL1        0.0780
     12 C         139.1003  140.6865  161.6629 C.3     1  UNL1        0.0557
     13 N         137.6718  142.9289  161.3872 N.3     1  UNL1       -0.1830
     14 H         137.2932  143.4294  160.5831 H       1  UNL1        0.1484
     15 S         138.4551  143.9262  162.1883 S.O2    1  UNL1        0.0390
     16 O         137.5674  143.6734  163.3708 O.2     1  UNL1       -0.1576
     17 O         139.3426  144.1790  161.0059 O.2     1  UNL1       -0.1576
     18 C         139.2578  144.8335  164.4867 C.3     1  UNL1        0.0270
     19 C         139.2383  144.9235  162.9895 C.3     1  UNL1        0.1457
     20 C         140.0019  146.0109  162.2936 C.3     1  UNL1        0.0270
     21 C         139.9512  140.8394  167.6003 C.ar    1  UNL1        0.0013
     22 C         139.0724  140.0275  168.5050 C.ar    1  UNL1        0.0001
     23 C         139.2851  140.0657  169.9894 C.ar    1  UNL1        0.0013
     24 C         140.3766  140.9159  170.5690 C.ar    1  UNL1        0.0183
     25 C         141.2554  141.7278  169.6642 C.ar    1  UNL1        0.1057
     26 C         141.0427  141.6895  168.1799 C.ar    1  UNL1        0.0183
     27 S         142.3469  142.5779  170.2438 S.O2    1  UNL1        0.0104
     28 C         143.4384  143.4280  170.8234 C.3     1  UNL1        0.1816
     29 O         141.7621  142.3952  171.6130 O.2     1  UNL1       -0.1686
     30 O         142.9316  142.7607  168.8746 O.2     1  UNL1       -0.1686
@<TRIPOS>BOND
     1    18    19    1
     2    19    20    1
     3    19    15    1
     4    15    16    2
     5    15    17    2
     6    15    13    1
     7     7    13    1
     8     7     8    1
     9     8     9    1
    10     9    10    1
    11     9    11    1
    12    11    12    1
    13    12     1    1
    14     1     2   ar
    15     2     3   ar
    16     3     4   ar
    17     4    21    1
    18    21    22   ar
    19    22    23   ar
    20    23    24   ar
    21    24    25   ar
    22    25    27    1
    23    27    28    1
    24    27    29    2
    25    27    30    2
    26    25    26   ar
    27     4     5   ar
    28     5     6   ar
    29    12     7    1
    30     6     1   ar
    31    26    21   ar
    32    13    14    1
@<TRIPOS>MOLECULE
*****
 30 32 0 0 0
SMALL
GASTEIGER

@<TRIPOS>ATOM
      1 C         142.4917  142.8810  162.6578 C.ar    1  UNL1       -0.0197
      2 C         143.4143  143.5862  163.6072 C.ar    1  UNL1       -0.0042
      3 C         143.3179  143.3236  165.0809 C.ar    1  UNL1       -0.0003
      4 C         142.2988  142.3558  165.6051 C.ar    1  UNL1        0.0000
      5 C         141.3762  141.6506  164.6558 C.ar    1  UNL1       -0.0003
      6 C         141.4726  141.9132  163.1821 C.ar    1  UNL1       -0.0042
      7 C         141.9338  144.2730  160.4451 C.3     1  UNL1        0.0964
      8 C         142.2970  144.1502  158.9949 C.3     1  UNL1        0.0901
      9 N         143.1758  142.9448  158.8377 N.3     1  UNL1       -0.2700
     10 C         143.7703  142.4486  157.5530 C.3     1  UNL1        0.0897
     11 C         143.3557  142.3226  160.1906 C.3     1  UNL1        0.0780
     12 C         142.5881  143.1435  161.1841 C.3     1  UNL1        0.0557
     13 N         141.0683  145.3383  161.0500 N.3     1  UNL1       -0.1830
     14 H         141.6958  146.0280  161.4635 H       1  UNL1        0.1484
     15 S         140.0638  144.9796  162.1047 S.O2    1  UNL1        0.0390
     16 O         139.2601  144.2296  161.0840 O.2     1  UNL1       -0.1576
     17 O         140.8675  145.7295  163.1252 O.2     1  UNL1       -0.1576
     18 C         139.3582  144.8937  164.6036 C.3     1  UNL1        0.0270
     19 C         139.0593  144.6207  163.1593 C.3     1  UNL1        0.1457
     20 C         137.7559  143.9889  162.7695 C.3     1  UNL1        0.0270
     21 C         142.2024  142.0932  167.0789 C.ar    1  UNL1        0.0013
     22 C         143.3766  142.3739  167.9691 C.ar    1  UNL1        0.0001
     23 C         143.2802  142.1113  169.4428 C.ar    1  UNL1        0.0013
     24 C         142.0096  141.5681  170.0263 C.ar    1  UNL1        0.0183
     25 C         140.8354  141.2875  169.1360 C.ar    1  UNL1        0.1057
     26 C         140.9318  141.5500  167.6624 C.ar    1  UNL1        0.0183
     27 S         139.5647  140.7443  169.7195 S.O2    1  UNL1        0.0104
     28 C         138.2941  140.2011  170.3030 C.3     1  UNL1        0.1816
     29 O         139.5852  139.6246  168.7216 O.2     1  UNL1       -0.1686
     30 O         139.5443  141.8640  170.7174 O.2     1  UNL1       -0.1686
@<TRIPOS>BOND
     1    18    19    1
     2    19    20    1
     3    19    15    1
     4    15    16    2
     5    15    17    2
     6    15    13    1
     7     7    13    1
     8     7     8    1
     9     8     9    1
    10     9    10    1
    11     9    11    1
    12    11    12    1
    13    12     1    1
    14     1     2   ar
    15     2     3   ar
    16     3     4   ar
    17     4    21    1
    18    21    22   ar
    19    22    23   ar
    20    23    24   ar
    21    24    25   ar
    22    25    27    1
    23    27    28    1
    24    27    29    2
    25    27    30    2
    26    25    26   ar
    27     4     5   ar
    28     5     6   ar
    29    12     7    1
    30     6     1   ar
    31    26    21   ar
    32    13    14    1
@<TRIPOS>MOLECULE
*****
 30 32 0 0 0
SMALL
GASTEIGER

@<TRIPOS>ATOM
      1 C         139.3028  140.0028  163.2392 C.ar    1  UNL1       -0.0197
      2 C         138.5902  139.0911  164.1937 C.ar    1  UNL1       -0.0042
      3 C         138.7473  139.2831  165.6730 C.ar    1  UNL1       -0.0003
      4 C         139.6169  140.3869  166.1978 C.ar    1  UNL1        0.0000
      5 C         140.3295  141.2986  165.2434 C.ar    1  UNL1       -0.0003
      6 C         140.1724  141.1065  163.7641 C.ar    1  UNL1       -0.0042
      7 C         139.8361  138.7713  160.9274 C.3     1  UNL1        0.0964
      8 C         139.3877  138.9426  159.5063 C.3     1  UNL1        0.0901
      9 N         138.4202  140.0881  159.4604 N.3     1  UNL1       -0.2700
     10 C         137.7244  140.6060  158.2366 C.3     1  UNL1        0.0897
     11 C         138.2706  140.6246  160.8531 C.3     1  UNL1        0.0780
     12 C         139.1457  139.8108  161.7598 C.3     1  UNL1        0.0557
     13 N         140.8047  137.7413  161.4282 N.3     1  UNL1       -0.1830
     14 H         140.2493  136.9776  161.8138 H       1  UNL1        0.1484
     15 S         141.8181  138.1091  162.4711 S.O2    1  UNL1        0.0390
     16 O         142.3954  139.1398  161.5466 O.2     1  UNL1       -0.1576
     17 O         141.2410  137.0785  163.3955 O.2     1  UNL1       -0.1576
     18 C         142.5267  138.2583  164.9662 C.3     1  UNL1        0.0270
     19 C         142.8316  138.4769  163.5139 C.3     1  UNL1        0.1457
     20 C         144.1501  139.0633  163.1045 C.3     1  UNL1        0.0270
     21 C         139.7740  140.5789  167.6772 C.ar    1  UNL1        0.0013
     22 C         138.8150  139.9214  168.6248 C.ar    1  UNL1        0.0001
     23 C         138.9721  140.1134  170.1042 C.ar    1  UNL1        0.0013
     24 C         140.0882  140.9629  170.6359 C.ar    1  UNL1        0.0183
     25 C         141.0472  141.6204  169.6882 C.ar    1  UNL1        0.1057
     26 C         140.8901  141.4284  168.2089 C.ar    1  UNL1        0.0183
     27 S         142.1633  142.4699  170.2199 S.O2    1  UNL1        0.0104
     28 C         143.2795  143.3193  170.7516 C.3     1  UNL1        0.1816
     29 O         142.7328  142.5871  168.8372 O.2     1  UNL1       -0.1686
     30 O         141.5939  142.3526  171.6026 O.2     1  UNL1       -0.1686
@<TRIPOS>BOND
     1    18    19    1
     2    19    20    1
     3    19    15    1
     4    15    16    2
     5    15    17    2
     6    15    13    1
     7     7    13    1
     8     7     8    1
     9     8     9    1
    10     9    10    1
    11     9    11    1
    12    11    12    1
    13    12     1    1
    14     1     2   ar
    15     2     3   ar
    16     3     4   ar
    17     4    21    1
    18    21    22   ar
    19    22    23   ar
    20    23    24   ar
    21    24    25   ar
    22    25    27    1
    23    27    28    1
    24    27    29    2
    25    27    30    2
    26    25    26   ar
    27     4     5   ar
    28     5     6   ar
    29    12     7    1
    30     6     1   ar
    31    26    21   ar
    32    13    14    1
@<TRIPOS>MOLECULE
*****
 30 32 0 0 0
SMALL
GASTEIGER

@<TRIPOS>ATOM
      1 C         142.8499  140.4317  163.0655 C.ar    1  UNL1       -0.0197
      2 C         141.7354  141.2184  163.6891 C.ar    1  UNL1       -0.0042
      3 C         141.4999  141.1420  165.1685 C.ar    1  UNL1       -0.0003
      4 C         142.3788  140.2788  166.0243 C.ar    1  UNL1        0.0000
      5 C         143.4933  139.4921  165.4007 C.ar    1  UNL1       -0.0003
      6 C         143.7289  139.5686  163.9213 C.ar    1  UNL1       -0.0042
      7 C         144.0892  141.3845  160.8972 C.3     1  UNL1        0.0964
      8 C         143.9828  141.1396  159.4212 C.3     1  UNL1        0.0901
      9 N         142.9133  140.1117  159.1978 N.3     1  UNL1       -0.2700
     10 C         142.4753  139.5694  157.8696 C.3     1  UNL1        0.0897
     11 C         142.3588  139.7215  160.5358 C.3     1  UNL1        0.0780
     12 C         143.0855  140.5081  161.5861 C.3     1  UNL1        0.0557
     13 N         145.0335  142.3384  161.5668 N.3     1  UNL1       -0.1830
     14 H         145.8298  141.7878  161.8879 H       1  UNL1        0.1484
     15 S         144.5709  143.1542  162.7374 S.O2    1  UNL1        0.0390
     16 O         145.4755  142.3700  163.6413 O.2     1  UNL1       -0.1576
     17 O         143.6664  143.9383  161.8337 O.2     1  UNL1       -0.1576
     18 C         143.3061  145.2172  163.6832 C.3     1  UNL1        0.0270
     19 C         144.1084  143.9699  163.9082 C.3     1  UNL1        0.1457
     20 C         144.4481  143.5383  165.3040 C.3     1  UNL1        0.0270
     21 C         142.1432  140.2024  167.5038 C.ar    1  UNL1        0.0013
     22 C         142.7462  139.0852  168.3025 C.ar    1  UNL1        0.0001
     23 C         142.5106  139.0087  169.7820 C.ar    1  UNL1        0.0013
     24 C         141.6720  140.0496  170.4626 C.ar    1  UNL1        0.0183
     25 C         141.0690  141.1669  169.6638 C.ar    1  UNL1        0.1057
     26 C         141.3046  141.2433  168.1844 C.ar    1  UNL1        0.0183
     27 S         140.2303  142.2078  170.3444 S.O2    1  UNL1        0.0104
     28 C         139.3917  143.2487  171.0250 C.3     1  UNL1        0.1816
     29 O         139.0468  141.2877  170.2931 O.2     1  UNL1       -0.1686
     30 O         141.4139  143.1279  170.3957 O.2     1  UNL1       -0.1686
@<TRIPOS>BOND
     1    18    19    1
     2    19    20    1
     3    19    15    1
     4    15    16    2
     5    15    17    2
     6    15    13    1
     7     7    13    1
     8     7     8    1
     9     8     9    1
    10     9    10    1
    11     9    11    1
    12    11    12    1
    13    12     1    1
    14     1     2   ar
    15     2     3   ar
    16     3     4   ar
    17     4    21    1
    18    21    22   ar
    19    22    23   ar
    20    23    24   ar
    21    24    25   ar
    22    25    27    1
    23    27    28    1
    24    27    29    2
    25    27    30    2
    26    25    26   ar
    27     4     5   ar
    28     5     6   ar
    29    12     7    1
    30     6     1   ar
    31    26    21   ar
    32    13    14    1
@<TRIPOS>MOLECULE
*****
 30 32 0 0 0
SMALL
GASTEIGER

@<TRIPOS>ATOM
      1 C         142.1216  141.2808  161.7269 C.ar    1  UNL1       -0.0197
      2 C         142.3952  139.9535  162.3696 C.ar    1  UNL1       -0.0042
      3 C         141.6414  139.5469  163.6010 C.ar    1  UNL1       -0.0003
      4 C         140.6140  140.4676  164.1897 C.ar    1  UNL1        0.0000
      5 C         140.3403  141.7950  163.5470 C.ar    1  UNL1       -0.0003
      6 C         141.0941  142.2016  162.3156 C.ar    1  UNL1       -0.0042
      7 C         144.2616  142.2595  160.4588 C.3     1  UNL1        0.0964
      8 C         144.6182  142.5191  159.0252 C.3     1  UNL1        0.0901
      9 N         143.4524  142.1076  158.1757 N.3     1  UNL1       -0.2700
     10 C         143.3770  142.1947  156.6801 C.3     1  UNL1        0.0897
     11 C         142.3753  141.5936  159.0843 C.3     1  UNL1        0.0780
     12 C         142.8754  141.6875  160.4954 C.3     1  UNL1        0.0557
     13 N         145.1374  142.5252  161.6472 N.3     1  UNL1       -0.1830
     14 H         145.5169  141.6250  161.9404 H       1  UNL1        0.1484
     15 S         144.5632  143.1726  162.8724 S.O2    1  UNL1        0.0390
     16 O         144.9490  141.9735  163.6869 O.2     1  UNL1       -0.1576
     17 O         144.1774  144.3717  162.0580 O.2     1  UNL1       -0.1576
     18 C         144.1952  143.1921  165.4442 C.3     1  UNL1        0.0270
     19 C         143.9890  143.8200  164.0976 C.3     1  UNL1        0.1457
     20 C         143.2087  145.0953  163.9763 C.3     1  UNL1        0.0270
     21 C         139.8601  140.0609  165.4212 C.ar    1  UNL1        0.0013
     22 C         138.6400  139.1966  165.3024 C.ar    1  UNL1        0.0001
     23 C         137.8862  138.7899  166.5339 C.ar    1  UNL1        0.0013
     24 C         138.3526  139.2476  167.8841 C.ar    1  UNL1        0.0183
     25 C         139.5728  140.1119  168.0028 C.ar    1  UNL1        0.1057
     26 C         140.3265  140.5186  166.7713 C.ar    1  UNL1        0.0183
     27 S         140.0392  140.5696  169.3530 S.O2    1  UNL1        0.0104
     28 C         140.5056  141.0272  170.7032 C.3     1  UNL1        0.1816
     29 O         141.1582  141.3323  168.7079 O.2     1  UNL1       -0.1686
     30 O         138.9202  139.8069  169.9980 O.2     1  UNL1       -0.1686
@<TRIPOS>BOND
     1    18    19    1
     2    19    20    1
     3    19    15    1
     4    15    16    2
     5    15    17    2
     6    15    13    1
     7     7    13    1
     8     7     8    1
     9     8     9    1
    10     9    10    1
    11     9    11    1
    12    11    12    1
    13    12     1    1
    14     1     2   ar
    15     2     3   ar
    16     3     4   ar
    17     4    21    1
    18    21    22   ar
    19    22    23   ar
    20    23    24   ar
    21    24    25   ar
    22    25    27    1
    23    27    28    1
    24    27    29    2
    25    27    30    2
    26    25    26   ar
    27     4     5   ar
    28     5     6   ar
    29    12     7    1
    30     6     1   ar
    31    26    21   ar
    32    13    14    1
@<TRIPOS>MOLECULE
*****
 30 32 0 0 0
SMALL
GASTEIGER

@<TRIPOS>ATOM
      1 C         141.6451  143.2164  162.1968 C.ar    1  UNL1       -0.0197
      2 C         142.1255  143.8304  163.4783 C.ar    1  UNL1       -0.0042
      3 C         142.4058  142.9606  164.6677 C.ar    1  UNL1       -0.0003
      4 C         142.2057  141.4768  164.5757 C.ar    1  UNL1        0.0000
      5 C         141.7253  140.8629  163.2942 C.ar    1  UNL1       -0.0003
      6 C         141.4450  141.7327  162.1048 C.ar    1  UNL1       -0.0042
      7 C         140.1384  144.9239  160.7970 C.3     1  UNL1        0.0964
      8 C         140.2773  145.6264  159.4790 C.3     1  UNL1        0.0901
      9 N         141.5895  145.2229  158.8746 N.3     1  UNL1       -0.2700
     10 C         142.1340  145.6893  157.5571 C.3     1  UNL1        0.0897
     11 C         142.2616  144.2710  159.8192 C.3     1  UNL1        0.0780
     12 C         141.3647  144.0862  161.0073 C.3     1  UNL1        0.0557
     13 N         138.9770  145.0390  161.7393 N.3     1  UNL1       -0.1830
     14 H         139.2475  145.7085  162.4597 H       1  UNL1        0.1484
     15 S         138.4643  143.8217  162.4501 S.O2    1  UNL1        0.0390
     16 O         138.7883  144.4561  163.7702 O.2     1  UNL1       -0.1576
     17 O         138.1404  143.1873  161.1301 O.2     1  UNL1       -0.1576
     18 C         137.9541  142.5548  164.6602 C.3     1  UNL1        0.0270
     19 C         137.9516  142.6044  163.1610 C.3     1  UNL1        0.1457
     20 C         137.4365  141.4368  162.3728 C.3     1  UNL1        0.0270
     21 C         142.4861  140.6070  165.7652 C.ar    1  UNL1        0.0013
     22 C         143.1318  139.2661  165.5784 C.ar    1  UNL1        0.0001
     23 C         143.4121  138.3963  166.7679 C.ar    1  UNL1        0.0013
     24 C         143.0468  138.8675  168.1443 C.ar    1  UNL1        0.0183
     25 C         142.4010  140.2085  168.3311 C.ar    1  UNL1        0.1057
     26 C         142.1207  141.0782  167.1416 C.ar    1  UNL1        0.0183
     27 S         142.0357  140.6797  169.7075 S.O2    1  UNL1        0.0104
     28 C         141.6703  141.1509  171.0839 C.3     1  UNL1        0.1816
     29 O         140.7978  141.3247  169.1582 O.2     1  UNL1       -0.1686
     30 O         143.2735  140.0347  170.2569 O.2     1  UNL1       -0.1686
@<TRIPOS>BOND
     1    18    19    1
     2    19    20    1
     3    19    15    1
     4    15    16    2
     5    15    17    2
     6    15    13    1
     7     7    13    1
     8     7     8    1
     9     8     9    1
    10     9    10    1
    11     9    11    1
    12    11    12    1
    13    12     1    1
    14     1     2   ar
    15     2     3   ar
    16     3     4   ar
    17     4    21    1
    18    21    22   ar
    19    22    23   ar
    20    23    24   ar
    21    24    25   ar
    22    25    27    1
    23    27    28    1
    24    27    29    2
    25    27    30    2
    26    25    26   ar
    27     4     5   ar
    28     5     6   ar
    29    12     7    1
    30     6     1   ar
    31    26    21   ar
    32    13    14    1
@<TRIPOS>MOLECULE
*****
 30 32 0 0 0
SMALL
GASTEIGER

@<TRIPOS>ATOM
      1 C         139.6748  142.2674  160.9730 C.ar    1  UNL1       -0.0197
      2 C         140.8427  141.7144  161.7347 C.ar    1  UNL1       -0.0042
      3 C         140.6371  141.1247  163.0985 C.ar    1  UNL1       -0.0003
      4 C         139.2637  141.0879  163.7005 C.ar    1  UNL1        0.0000
      5 C         138.0959  141.6409  162.9388 C.ar    1  UNL1       -0.0003
      6 C         138.3014  142.2306  161.5750 C.ar    1  UNL1       -0.0042
      7 C         139.9528  144.3194  159.2826 C.3     1  UNL1        0.0964
      8 C         140.1667  144.4541  157.8041 C.3     1  UNL1        0.0901
      9 N         140.2264  143.0751  157.2168 N.3     1  UNL1       -0.2700
     10 C         140.4277  142.7417  155.7682 C.3     1  UNL1        0.0897
     11 C         140.0494  142.0882  158.3324 C.3     1  UNL1        0.0780
     12 C         139.8803  142.8572  159.6091 C.3     1  UNL1        0.0557
     13 N         139.8326  145.4486  160.2626 N.3     1  UNL1       -0.1830
     14 H         140.3362  146.2404  159.8627 H       1  UNL1        0.1484
     15 S         140.3345  145.2805  161.6660 S.O2    1  UNL1        0.0390
     16 O         141.7299  145.1015  161.1455 O.2     1  UNL1       -0.1576
     17 O         138.9393  145.4595  162.1866 O.2     1  UNL1       -0.1576
     18 C         142.3016  145.2448  163.3629 C.3     1  UNL1        0.0270
     19 C         140.8366  145.1124  163.0695 C.3     1  UNL1        0.1457
     20 C         139.8736  144.8119  164.1796 C.3     1  UNL1        0.0270
     21 C         139.0582  140.4981  165.0644 C.ar    1  UNL1        0.0013
     22 C         138.0690  139.3877  165.2601 C.ar    1  UNL1        0.0001
     23 C         137.8635  138.7980  166.6239 C.ar    1  UNL1        0.0013
     24 C         138.6473  139.3187  167.7920 C.ar    1  UNL1        0.0183
     25 C         139.6366  140.4291  167.5963 C.ar    1  UNL1        0.1057
     26 C         139.8420  141.0189  166.2325 C.ar    1  UNL1        0.0183
     27 S         140.4203  140.9498  168.7645 S.O2    1  UNL1        0.0104
     28 C         141.2041  141.4706  169.9326 C.3     1  UNL1        0.1816
     29 O         140.9768  142.0445  167.9031 O.2     1  UNL1       -0.1686
     30 O         139.8638  139.8552  169.6258 O.2     1  UNL1       -0.1686
@<TRIPOS>BOND
     1    18    19    1
     2    19    20    1
     3    19    15    1
     4    15    16    2
     5    15    17    2
     6    15    13    1
     7     7    13    1
     8     7     8    1
     9     8     9    1
    10     9    10    1
    11     9    11    1
    12    11    12    1
    13    12     1    1
    14     1     2   ar
    15     2     3   ar
    16     3     4   ar
    17     4    21    1
    18    21    22   ar
    19    22    23   ar
    20    23    24   ar
    21    24    25   ar
    22    25    27    1
    23    27    28    1
    24    27    29    2
    25    27    30    2
    26    25    26   ar
    27     4     5   ar
    28     5     6   ar
    29    12     7    1
    30     6     1   ar
    31    26    21   ar
    32    13    14    1
@<TRIPOS>MOLECULE
*****
 30 32 0 0 0
SMALL
GASTEIGER

@<TRIPOS>ATOM
      1 C         141.1583  139.2343  162.8064 C.ar    1  UNL1       -0.0197
      2 C         140.7926  140.6415  163.1753 C.ar    1  UNL1       -0.0042
      3 C         140.5459  141.0005  164.6106 C.ar    1  UNL1       -0.0003
      4 C         140.6649  139.9524  165.6770 C.ar    1  UNL1        0.0000
      5 C         141.0305  138.5452  165.3082 C.ar    1  UNL1       -0.0003
      6 C         141.2772  138.1862  163.8729 C.ar    1  UNL1       -0.0042
      7 C         142.7441  138.6309  160.7409 C.3     1  UNL1        0.0964
      8 C         142.5226  138.3021  159.2942 C.3     1  UNL1        0.0901
      9 N         141.0465  138.3431  159.0303 N.3     1  UNL1       -0.2700
     10 C         140.3785  138.0767  157.7140 C.3     1  UNL1        0.0897
     11 C         140.3558  138.6973  160.3138 C.3     1  UNL1        0.0780
     12 C         141.4050  138.8752  161.3710 C.3     1  UNL1        0.0557
     13 N         144.0716  138.7029  161.4354 N.3     1  UNL1       -0.1830
     14 H         144.1548  137.8574  161.9999 H       1  UNL1        0.1484
     15 S         144.3840  139.8590  162.3386 S.O2    1  UNL1        0.0390
     16 O         144.1989  140.8061  161.1902 O.2     1  UNL1       -0.1576
     17 O         144.5691  138.9120  163.4869 O.2     1  UNL1       -0.1576
     18 C         144.2561  140.9874  164.6753 C.3     1  UNL1        0.0270
     19 C         144.6964  141.0152  163.2417 C.3     1  UNL1        0.1457
     20 C         145.4491  142.1992  162.7111 C.3     1  UNL1        0.0270
     21 C         140.4182  140.3115  167.1124 C.ar    1  UNL1        0.0013
     22 C         139.2076  139.7803  167.8210 C.ar    1  UNL1        0.0001
     23 C         138.9609  140.1394  169.2564 C.ar    1  UNL1        0.0013
     24 C         139.9248  141.0298  169.9831 C.ar    1  UNL1        0.0183
     25 C         141.1355  141.5610  169.2744 C.ar    1  UNL1        0.1057
     26 C         141.3821  141.2019  167.8391 C.ar    1  UNL1        0.0183
     27 S         142.0994  142.4514  170.0011 S.O2    1  UNL1        0.0104
     28 C         143.0634  143.3417  170.7278 C.3     1  UNL1        0.1816
     29 O         143.0521  142.3629  168.8458 O.2     1  UNL1       -0.1686
     30 O         141.1468  142.5398  171.1564 O.2     1  UNL1       -0.1686
@<TRIPOS>BOND
     1    18    19    1
     2    19    20    1
     3    19    15    1
     4    15    16    2
     5    15    17    2
     6    15    13    1
     7     7    13    1
     8     7     8    1
     9     8     9    1
    10     9    10    1
    11     9    11    1
    12    11    12    1
    13    12     1    1
    14     1     2   ar
    15     2     3   ar
    16     3     4   ar
    17     4    21    1
    18    21    22   ar
    19    22    23   ar
    20    23    24   ar
    21    24    25   ar
    22    25    27    1
    23    27    28    1
    24    27    29    2
    25    27    30    2
    26    25    26   ar
    27     4     5   ar
    28     5     6   ar
    29    12     7    1
    30     6     1   ar
    31    26    21   ar
    32    13    14    1
@<TRIPOS>MOLECULE
*****
 30 32 0 0 0
SMALL
GASTEIGER

@<TRIPOS>ATOM
      1 C         140.4479  142.4931  161.9091 C.ar    1  UNL1       -0.0197
      2 C         140.9495  141.1252  162.2658 C.ar    1  UNL1       -0.0042
      3 C         140.5617  140.5018  163.5738 C.ar    1  UNL1       -0.0003
      4 C         139.6722  141.2462  164.5250 C.ar    1  UNL1        0.0000
      5 C         139.1707  142.6140  164.1682 C.ar    1  UNL1       -0.0003
      6 C         139.5585  143.2375  162.8603 C.ar    1  UNL1       -0.0042
      7 C         141.8132  144.2390  160.4147 C.3     1  UNL1        0.0964
      8 C         141.8958  144.5432  158.9483 C.3     1  UNL1        0.0901
      9 N         140.9693  143.6088  158.2281 N.3     1  UNL1       -0.2700
     10 C         140.7385  143.5639  156.7467 C.3     1  UNL1        0.0897
     11 C         140.3142  142.7271  159.2496 C.3     1  UNL1        0.0780
     12 C         140.8358  143.1166  160.6010 C.3     1  UNL1        0.0557
     13 N         142.5745  144.9351  161.5038 N.3     1  UNL1       -0.1830
     14 H         143.2085  145.5906  161.0470 H       1  UNL1        0.1484
     15 S         143.3988  144.1376  162.4704 S.O2    1  UNL1        0.0390
     16 O         144.1439  143.5192  161.3247 O.2     1  UNL1       -0.1576
     17 O         142.6538  144.7559  163.6160 O.2     1  UNL1       -0.1576
     18 C         145.0778  142.2115  162.9408 C.3     1  UNL1        0.0270
     19 C         144.2233  143.3400  163.4369 C.3     1  UNL1        0.1457
     20 C         144.1931  143.6710  164.8996 C.3     1  UNL1        0.0270
     21 C         139.2844  140.6227  165.8330 C.ar    1  UNL1        0.0013
     22 C         138.2656  139.5223  165.8665 C.ar    1  UNL1        0.0001
     23 C         137.8778  138.8988  167.1746 C.ar    1  UNL1        0.0013
     24 C         138.5088  139.3757  168.4491 C.ar    1  UNL1        0.0183
     25 C         139.5276  140.4762  168.4155 C.ar    1  UNL1        0.1057
     26 C         139.9154  141.0996  167.1076 C.ar    1  UNL1        0.0183
     27 S         140.1586  140.9531  169.6900 S.O2    1  UNL1        0.0104
     28 C         140.7896  141.4300  170.9646 C.3     1  UNL1        0.1816
     29 O         140.3444  142.3146  169.0886 O.2     1  UNL1       -0.1686
     30 O         139.9728  139.5916  170.2915 O.2     1  UNL1       -0.1686
@<TRIPOS>BOND
     1    18    19    1
     2    19    20    1
     3    19    15    1
     4    15    16    2
     5    15    17    2
     6    15    13    1
     7     7    13    1
     8     7     8    1
     9     8     9    1
    10     9    10    1
    11     9    11    1
    12    11    12    1
    13    12     1    1
    14     1     2   ar
    15     2     3   ar
    16     3     4   ar
    17     4    21    1
    18    21    22   ar
    19    22    23   ar
    20    23    24   ar
    21    24    25   ar
    22    25    27    1
    23    27    28    1
    24    27    29    2
    25    27    30    2
    26    25    26   ar
    27     4     5   ar
    28     5     6   ar
    29    12     7    1
    30     6     1   ar
    31    26    21   ar
    32    13    14    1
