@<TRIPOS>MOLECULE
*****
 27 30 0 0 0
SMALL
GASTEIGER

@<TRIPOS>ATOM
      1 C         139.6770  140.2026  167.4509 C.ar    1  UNL1        0.2454
      2 N         139.2877  139.7270  168.8192 N.ar    1  UNL1       -0.1778
      3 C         140.1722  140.0196  169.9947 C.ar    1  UNL1        0.2163
      4 N         139.7829  139.5439  171.3631 N.pl3   1  UNL1       -0.3274
      5 N         141.4461  140.7879  169.8020 N.ar    1  UNL1       -0.2123
      6 C         141.8353  141.2636  168.4337 C.ar    1  UNL1        0.1060
      7 C         143.0218  142.0370  167.9399 C.ar    1  UNL1        0.0395
      8 C         142.8706  142.2224  166.4591 C.ar    1  UNL1        0.0779
      9 N         141.5906  141.5635  166.0377 N.ar    1  UNL1       -0.3154
     10 C         140.9507  140.9709  167.2582 C.ar    1  UNL1        0.1322
     11 H         138.9469  139.0397  171.4896 H       1  UNL1        0.1452
     12 H         140.3635  139.7360  172.1346 H       1  UNL1        0.1452
     13 O         138.7924  139.9099  166.2753 O.3     1  UNL1       -0.4506
     14 C         138.6779  138.5083  165.7535 C.3     1  UNL1        0.2754
     15 C         139.2825  138.2340  160.5151 C.3     1  UNL1        0.0978
     16 C         139.4939  138.0413  161.9877 C.ar    1  UNL1        0.2369
     17 N         138.6422  138.6118  163.0827 N.ar    1  UNL1       -0.1913
     18 C         139.2159  138.1674  164.3954 C.ar    1  UNL1        0.2247
     19 N         140.4222  137.3222  164.1117 N.ar    1  UNL1       -0.0567
     20 O         140.5940  137.2443  162.6236 O.2     1  UNL1       -0.3372
     21 C         141.0461  141.5071  164.6412 C.3     1  UNL1        0.1520
     22 C         139.9387  142.4316  164.2301 C.ar    1  UNL1        0.0818
     23 C         139.6339  143.6488  165.0518 C.ar    1  UNL1        0.0167
     24 C         138.5265  144.5733  164.6408 C.ar    1  UNL1        0.0029
     25 C         137.7239  144.2805  163.4078 C.ar    1  UNL1        0.0207
     26 C         138.0288  143.0632  162.5860 C.ar    1  UNL1        0.0985
     27 N         139.1361  142.1388  162.9971 N.ar    1  UNL1       -0.2462
@<TRIPOS>BOND
     1    15    16    1
     2    16    17   ar
     3    17    18   ar
     4    18    14    1
     5    14    13    1
     6    13     1    1
     7     1     2   ar
     8     2     3   ar
     9     3     4    1
    10     3     5   ar
    11     5     6   ar
    12     6     7   ar
    13     7     8   ar
    14     8     9   ar
    15     9    21    1
    16    21    22    1
    17    22    23   ar
    18    23    24   ar
    19    24    25   ar
    20    25    26   ar
    21    26    27   ar
    22     9    10   ar
    23    18    19   ar
    24    19    20   ar
    25    20    16   ar
    26    10     1   ar
    27    10     6   ar
    28    27    22   ar
    29     4    11    1
    30     4    12    1
@<TRIPOS>MOLECULE
*****
 27 30 0 0 0
SMALL
GASTEIGER

@<TRIPOS>ATOM
      1 C         139.5483  140.0020  167.6706 C.ar    1  UNL1        0.2454
      2 N         138.4487  139.4569  168.5330 N.ar    1  UNL1       -0.1778
      3 C         138.3428  139.8778  169.9687 C.ar    1  UNL1        0.2163
      4 N         137.2431  139.3327  170.8310 N.pl3   1  UNL1       -0.3274
      5 N         139.3366  140.8440  170.5423 N.ar    1  UNL1       -0.2123
      6 C         140.4362  141.3892  169.6800 C.ar    1  UNL1        0.1060
      7 C         141.5530  142.3491  169.9651 C.ar    1  UNL1        0.0395
      8 C         142.3490  142.5214  168.7055 C.ar    1  UNL1        0.0779
      9 N         141.7243  141.6679  167.6419 N.ar    1  UNL1       -0.3154
     10 C         140.5421  140.9682  168.2442 C.ar    1  UNL1        0.1322
     11 H         136.5908  138.6985  170.4546 H       1  UNL1        0.1452
     12 H         137.1736  139.6090  171.7734 H       1  UNL1        0.1452
     13 O         139.6542  139.5810  166.2348 O.3     1  UNL1       -0.4506
     14 C         138.4173  139.4650  165.3941 C.3     1  UNL1        0.2754
     15 C         137.6641  144.2019  163.1862 C.3     1  UNL1        0.0978
     16 C         137.7338  142.7172  163.3890 C.ar    1  UNL1        0.2369
     17 N         138.1614  142.0181  164.6453 N.ar    1  UNL1       -0.1913
     18 C         138.0800  140.5400  164.4039 C.ar    1  UNL1        0.2247
     19 N         137.6022  140.3255  162.9983 N.ar    1  UNL1       -0.0567
     20 O         137.3882  141.6712  162.3711 O.2     1  UNL1       -0.3372
     21 C         142.1985  141.5372  166.2249 C.3     1  UNL1        0.1520
     22 C         142.3795  142.7623  165.3785 C.ar    1  UNL1        0.0818
     23 C         143.7592  143.2640  165.0708 C.ar    1  UNL1        0.0167
     24 C         143.9403  144.4891  164.2244 C.ar    1  UNL1        0.0029
     25 C         142.7416  145.2125  163.6858 C.ar    1  UNL1        0.0207
     26 C         141.3619  144.7107  163.9936 C.ar    1  UNL1        0.0985
     27 N         141.1809  143.4856  164.8399 N.ar    1  UNL1       -0.2462
@<TRIPOS>BOND
     1    15    16    1
     2    16    17   ar
     3    17    18   ar
     4    18    14    1
     5    14    13    1
     6    13     1    1
     7     1     2   ar
     8     2     3   ar
     9     3     4    1
    10     3     5   ar
    11     5     6   ar
    12     6     7   ar
    13     7     8   ar
    14     8     9   ar
    15     9    21    1
    16    21    22    1
    17    22    23   ar
    18    23    24   ar
    19    24    25   ar
    20    25    26   ar
    21    26    27   ar
    22     9    10   ar
    23    18    19   ar
    24    19    20   ar
    25    20    16   ar
    26    10     1   ar
    27    10     6   ar
    28    27    22   ar
    29     4    11    1
    30     4    12    1
@<TRIPOS>MOLECULE
*****
 27 30 0 0 0
SMALL
GASTEIGER

@<TRIPOS>ATOM
      1 C         140.9799  142.6401  162.4404 C.ar    1  UNL1        0.2454
      2 N         142.2892  143.3506  162.2643 N.ar    1  UNL1       -0.1778
      3 C         142.5354  144.6538  162.9648 C.ar    1  UNL1        0.2163
      4 N         143.8448  145.3644  162.7887 N.pl3   1  UNL1       -0.3274
      5 N         141.4724  145.2468  163.8415 N.ar    1  UNL1       -0.2123
      6 C         140.1631  144.5363  164.0176 C.ar    1  UNL1        0.1060
      7 C         138.9366  144.8745  164.8122 C.ar    1  UNL1        0.0395
      8 C         137.9324  143.7801  164.6027 C.ar    1  UNL1        0.0779
      9 N         138.5382  142.7656  163.6787 N.ar    1  UNL1       -0.3154
     10 C         139.9169  143.2330  163.3171 C.ar    1  UNL1        0.1322
     11 H         144.5425  144.9753  162.2133 H       1  UNL1        0.1452
     12 H         144.0064  146.2198  163.2485 H       1  UNL1        0.1452
     13 O         140.7337  141.3368  161.7399 O.3     1  UNL1       -0.4506
     14 C         141.7224  140.2164  161.8709 C.3     1  UNL1        0.2754
     15 C         142.1662  139.5268  167.0871 C.3     1  UNL1        0.0978
     16 C         142.1781  139.2742  165.6085 C.ar    1  UNL1        0.2369
     17 N         141.8254  140.2676  164.5414 N.ar    1  UNL1       -0.1913
     18 C         141.9741  139.5912  163.2110 C.ar    1  UNL1        0.2247
     19 N         142.4188  138.1797  163.4557 N.ar    1  UNL1       -0.0567
     20 O         142.5449  137.9838  164.9375 O.2     1  UNL1       -0.3372
     21 C         137.8807  141.5051  163.2003 C.3     1  UNL1        0.1520
     22 C         138.2080  140.1944  163.8522 C.ar    1  UNL1        0.0818
     23 C         138.2375  140.0876  165.3480 C.ar    1  UNL1        0.0167
     24 C         138.5648  138.7769  166.0000 C.ar    1  UNL1        0.0029
     25 C         138.8626  137.5731  165.1560 C.ar    1  UNL1        0.0207
     26 C         138.8331  137.6801  163.6601 C.ar    1  UNL1        0.0985
     27 N         138.5058  138.9907  163.0082 N.ar    1  UNL1       -0.2462
@<TRIPOS>BOND
     1    15    16    1
     2    16    17   ar
     3    17    18   ar
     4    18    14    1
     5    14    13    1
     6    13     1    1
     7     1     2   ar
     8     2     3   ar
     9     3     4    1
    10     3     5   ar
    11     5     6   ar
    12     6     7   ar
    13     7     8   ar
    14     8     9   ar
    15     9    21    1
    16    21    22    1
    17    22    23   ar
    18    23    24   ar
    19    24    25   ar
    20    25    26   ar
    21    26    27   ar
    22     9    10   ar
    23    18    19   ar
    24    19    20   ar
    25    20    16   ar
    26    10     1   ar
    27    10     6   ar
    28    27    22   ar
    29     4    11    1
    30     4    12    1
@<TRIPOS>MOLECULE
*****
 27 30 0 0 0
SMALL
GASTEIGER

@<TRIPOS>ATOM
      1 C         144.1595  139.5564  162.8229 C.ar    1  UNL1        0.2454
      2 N         144.3281  139.6514  161.3355 N.ar    1  UNL1       -0.1778
      3 C         143.4039  138.8971  160.4263 C.ar    1  UNL1        0.2163
      4 N         143.5726  138.9921  158.9387 N.pl3   1  UNL1       -0.3274
      5 N         142.3110  138.0478  161.0044 N.ar    1  UNL1       -0.2123
      6 C         142.1423  137.9528  162.4919 C.ar    1  UNL1        0.1060
      7 C         141.1640  137.2013  163.3451 C.ar    1  UNL1        0.0395
      8 C         141.4836  137.4911  164.7817 C.ar    1  UNL1        0.0779
      9 N         142.6595  138.4218  164.8163 N.ar    1  UNL1       -0.3154
     10 C         143.0666  138.7072  163.4011 C.ar    1  UNL1        0.1322
     11 H         144.2899  139.5495  158.5592 H       1  UNL1        0.1452
     12 H         142.9660  138.4970  158.3419 H       1  UNL1        0.1452
     13 O         145.0838  140.3108  163.7322 O.3     1  UNL1       -0.4506
     14 C         145.6073  141.6552  163.3219 C.3     1  UNL1        0.2754
     15 C         141.8830  145.3693  163.7879 C.3     1  UNL1        0.0978
     16 C         142.9399  144.4728  163.2138 C.ar    1  UNL1        0.2369
     17 N         143.6995  143.4157  163.9591 N.ar    1  UNL1       -0.1913
     18 C         144.6517  142.7657  162.9997 C.ar    1  UNL1        0.2247
     19 N         144.4807  143.4211  161.6613 N.ar    1  UNL1       -0.0567
     20 O         143.4227  144.4761  161.7937 O.2     1  UNL1       -0.3372
     21 C         143.3134  138.9707  166.0497 C.3     1  UNL1        0.1520
     22 C         142.4812  139.3193  167.2480 C.ar    1  UNL1        0.0818
     23 C         141.1660  140.0182  167.0700 C.ar    1  UNL1        0.0167
     24 C         140.3337  140.3668  168.2682 C.ar    1  UNL1        0.0029
     25 C         140.8168  140.0165  169.6445 C.ar    1  UNL1        0.0207
     26 C         142.1320  139.3175  169.8224 C.ar    1  UNL1        0.0985
     27 N         142.9642  138.9690  168.6242 N.ar    1  UNL1       -0.2462
@<TRIPOS>BOND
     1    15    16    1
     2    16    17   ar
     3    17    18   ar
     4    18    14    1
     5    14    13    1
     6    13     1    1
     7     1     2   ar
     8     2     3   ar
     9     3     4    1
    10     3     5   ar
    11     5     6   ar
    12     6     7   ar
    13     7     8   ar
    14     8     9   ar
    15     9    21    1
    16    21    22    1
    17    22    23   ar
    18    23    24   ar
    19    24    25   ar
    20    25    26   ar
    21    26    27   ar
    22     9    10   ar
    23    18    19   ar
    24    19    20   ar
    25    20    16   ar
    26    10     1   ar
    27    10     6   ar
    28    27    22   ar
    29     4    11    1
    30     4    12    1
@<TRIPOS>MOLECULE
*****
 27 30 0 0 0
SMALL
GASTEIGER

@<TRIPOS>ATOM
      1 C         141.1882  144.4278  163.7191 C.ar    1  UNL1        0.2454
      2 N         140.8433  145.5212  162.7520 N.ar    1  UNL1       -0.1778
      3 C         139.4658  145.5947  162.1631 C.ar    1  UNL1        0.2163
      4 N         139.1209  146.6882  161.1959 N.pl3   1  UNL1       -0.3274
      5 N         138.4330  144.5747  162.5413 N.ar    1  UNL1       -0.2123
      6 C         138.7779  143.4812  163.5085 C.ar    1  UNL1        0.1060
      7 C         137.9744  142.3434  164.0652 C.ar    1  UNL1        0.0395
      8 C         138.8555  141.5668  164.9982 C.ar    1  UNL1        0.0779
      9 N         140.2035  142.2245  165.0181 N.ar    1  UNL1       -0.3154
     10 C         140.1555  143.4078  164.0974 C.ar    1  UNL1        0.1322
     11 H         139.7987  147.3577  160.9477 H       1  UNL1        0.1452
     12 H         138.2167  146.7364  160.8094 H       1  UNL1        0.1452
     13 O         142.5658  144.3543  164.3080 O.3     1  UNL1       -0.4506
     14 C         143.7285  143.9548  163.4487 C.3     1  UNL1        0.2754
     15 C         143.9159  138.7565  162.5407 C.3     1  UNL1        0.0978
     16 C         144.2726  140.1373  163.0059 C.ar    1  UNL1        0.2369
     17 N         143.4548  141.3771  162.7963 N.ar    1  UNL1       -0.1913
     18 C         144.1864  142.5266  163.4232 C.ar    1  UNL1        0.2247
     19 N         145.4565  141.9972  164.0204 N.ar    1  UNL1       -0.0567
     20 O         145.5098  140.5206  163.7625 O.2     1  UNL1       -0.3372
     21 C         141.3909  141.7776  165.8182 C.3     1  UNL1        0.1520
     22 C         141.5570  142.2392  167.2357 C.ar    1  UNL1        0.0818
     23 C         140.4184  142.9116  167.9437 C.ar    1  UNL1        0.0167
     24 C         140.5843  143.3733  169.3612 C.ar    1  UNL1        0.0029
     25 C         141.8891  143.1625  170.0707 C.ar    1  UNL1        0.0207
     26 C         143.0277  142.4900  169.3626 C.ar    1  UNL1        0.0985
     27 N         142.8617  142.0284  167.9452 N.ar    1  UNL1       -0.2462
@<TRIPOS>BOND
     1    15    16    1
     2    16    17   ar
     3    17    18   ar
     4    18    14    1
     5    14    13    1
     6    13     1    1
     7     1     2   ar
     8     2     3   ar
     9     3     4    1
    10     3     5   ar
    11     5     6   ar
    12     6     7   ar
    13     7     8   ar
    14     8     9   ar
    15     9    21    1
    16    21    22    1
    17    22    23   ar
    18    23    24   ar
    19    24    25   ar
    20    25    26   ar
    21    26    27   ar
    22     9    10   ar
    23    18    19   ar
    24    19    20   ar
    25    20    16   ar
    26    10     1   ar
    27    10     6   ar
    28    27    22   ar
    29     4    11    1
    30     4    12    1
@<TRIPOS>MOLECULE
*****
 27 30 0 0 0
SMALL
GASTEIGER

@<TRIPOS>ATOM
      1 C         140.2511  138.9408  162.9242 C.ar    1  UNL1        0.2454
      2 N         140.7407  138.5529  161.5605 N.ar    1  UNL1       -0.1778
      3 C         142.1683  138.1359  161.3667 C.ar    1  UNL1        0.2163
      4 N         142.6579  137.7479  160.0028 N.pl3   1  UNL1       -0.3274
      5 N         143.1066  138.1067  162.5367 N.ar    1  UNL1       -0.2123
      6 C         142.6171  138.4946  163.9005 C.ar    1  UNL1        0.1060
      7 C         143.3047  138.5626  165.2318 C.ar    1  UNL1        0.0395
      8 C         142.3018  139.0218  166.2484 C.ar    1  UNL1        0.0779
      9 N         140.9945  139.2375  165.5454 N.ar    1  UNL1       -0.3154
     10 C         141.1893  138.9117  164.0942 C.ar    1  UNL1        0.1322
     11 H         142.0422  137.7671  159.2349 H       1  UNL1        0.1452
     12 H         143.5950  137.4742  159.8757 H       1  UNL1        0.1452
     13 O         138.8233  139.3579  163.1179 O.3     1  UNL1       -0.4506
     14 C         138.2139  140.3887  162.2146 C.3     1  UNL1        0.2754
     15 C         138.5032  144.7582  165.1650 C.3     1  UNL1        0.0978
     16 C         138.2732  143.8296  164.0096 C.ar    1  UNL1        0.2369
     17 N         138.4956  142.3462  164.0129 N.ar    1  UNL1       -0.1913
     18 C         138.1402  141.8212  162.6535 C.ar    1  UNL1        0.2247
     19 N         137.6982  142.9801  161.8100 N.ar    1  UNL1       -0.0567
     20 O         137.7804  144.2213  162.6481 O.2     1  UNL1       -0.3372
     21 C         139.7167  139.6982  166.1817 C.3     1  UNL1        0.1520
     22 C         139.7541  140.4601  167.4733 C.ar    1  UNL1        0.0818
     23 C         140.3362  141.8420  167.5121 C.ar    1  UNL1        0.0167
     24 C         140.3737  142.6040  168.8036 C.ar    1  UNL1        0.0029
     25 C         139.8290  141.9840  170.0563 C.ar    1  UNL1        0.0207
     26 C         139.2469  140.6021  170.0173 C.ar    1  UNL1        0.0985
     27 N         139.2095  139.8402  168.7259 N.ar    1  UNL1       -0.2462
@<TRIPOS>BOND
     1    15    16    1
     2    16    17   ar
     3    17    18   ar
     4    18    14    1
     5    14    13    1
     6    13     1    1
     7     1     2   ar
     8     2     3   ar
     9     3     4    1
    10     3     5   ar
    11     5     6   ar
    12     6     7   ar
    13     7     8   ar
    14     8     9   ar
    15     9    21    1
    16    21    22    1
    17    22    23   ar
    18    23    24   ar
    19    24    25   ar
    20    25    26   ar
    21    26    27   ar
    22     9    10   ar
    23    18    19   ar
    24    19    20   ar
    25    20    16   ar
    26    10     1   ar
    27    10     6   ar
    28    27    22   ar
    29     4    11    1
    30     4    12    1
@<TRIPOS>MOLECULE
*****
 27 30 0 0 0
SMALL
GASTEIGER

@<TRIPOS>ATOM
      1 C         142.5893  141.8088  167.9177 C.ar    1  UNL1        0.2454
      2 N         143.2960  142.7089  168.8875 N.ar    1  UNL1       -0.1778
      3 C         142.7008  142.9695  170.2394 C.ar    1  UNL1        0.2163
      4 N         143.4075  143.8696  171.2093 N.pl3   1  UNL1       -0.3274
      5 N         141.3988  142.3300  170.6216 N.ar    1  UNL1       -0.2123
      6 C         140.6921  141.4299  169.6518 C.ar    1  UNL1        0.1060
      7 C         139.4053  140.6651  169.7470 C.ar    1  UNL1        0.0395
      8 C         139.2052  139.9319  168.4538 C.ar    1  UNL1        0.0779
      9 N         140.3684  140.2435  167.5594 N.ar    1  UNL1       -0.3154
     10 C         141.2874  141.1694  168.2999 C.ar    1  UNL1        0.1322
     11 H         144.2620  144.2893  170.9584 H       1  UNL1        0.1452
     12 H         143.0168  144.0406  172.0966 H       1  UNL1        0.1452
     13 O         143.1846  141.5483  166.5658 O.3     1  UNL1       -0.4506
     14 C         143.6904  142.6910  165.7361 C.3     1  UNL1        0.2754
     15 C         144.5483  142.5345  160.5284 C.3     1  UNL1        0.0978
     16 C         144.7169  142.3547  162.0081 C.ar    1  UNL1        0.2369
     17 N         143.7582  142.8130  163.0668 N.ar    1  UNL1       -0.1913
     18 C         144.3226  142.4267  164.4017 C.ar    1  UNL1        0.2247
     19 N         145.6301  141.7298  164.1681 N.ar    1  UNL1       -0.0567
     20 O         145.8738  141.6853  162.6887 O.2     1  UNL1       -0.3372
     21 C         140.5761  139.7210  166.1688 C.3     1  UNL1        0.1520
     22 C         139.9167  140.4010  165.0058 C.ar    1  UNL1        0.0818
     23 C         138.4288  140.3193  164.8345 C.ar    1  UNL1        0.0167
     24 C         137.7692  140.9992  163.6715 C.ar    1  UNL1        0.0029
     25 C         138.5977  141.7610  162.6797 C.ar    1  UNL1        0.0207
     26 C         140.0857  141.8427  162.8511 C.ar    1  UNL1        0.0985
     27 N         140.7451  141.1627  164.0141 N.ar    1  UNL1       -0.2462
@<TRIPOS>BOND
     1    15    16    1
     2    16    17   ar
     3    17    18   ar
     4    18    14    1
     5    14    13    1
     6    13     1    1
     7     1     2   ar
     8     2     3   ar
     9     3     4    1
    10     3     5   ar
    11     5     6   ar
    12     6     7   ar
    13     7     8   ar
    14     8     9   ar
    15     9    21    1
    16    21    22    1
    17    22    23   ar
    18    23    24   ar
    19    24    25   ar
    20    25    26   ar
    21    26    27   ar
    22     9    10   ar
    23    18    19   ar
    24    19    20   ar
    25    20    16   ar
    26    10     1   ar
    27    10     6   ar
    28    27    22   ar
    29     4    11    1
    30     4    12    1
@<TRIPOS>MOLECULE
*****
 27 30 0 0 0
SMALL
GASTEIGER

@<TRIPOS>ATOM
      1 C         139.4477  143.9882  164.0676 C.ar    1  UNL1        0.2454
      2 N         138.8243  144.9236  163.0745 N.ar    1  UNL1       -0.1778
      3 C         139.6933  145.7258  162.1519 C.ar    1  UNL1        0.2163
      4 N         139.0699  146.6613  161.1587 N.pl3   1  UNL1       -0.3274
      5 N         141.1857  145.5927  162.2224 N.ar    1  UNL1       -0.2123
      6 C         141.8091  144.6572  163.2156 C.ar    1  UNL1        0.1060
      7 C         143.2394  144.3184  163.5145 C.ar    1  UNL1        0.0395
      8 C         143.2543  143.3067  164.6219 C.ar    1  UNL1        0.0779
      9 N         141.8333  143.0203  165.0073 N.ar    1  UNL1       -0.3154
     10 C         140.9401  143.8550  164.1382 C.ar    1  UNL1        0.1322
     11 H         138.0903  146.7488  161.1124 H       1  UNL1        0.1452
     12 H         139.6402  147.1879  160.5532 H       1  UNL1        0.1452
     13 O         138.5786  143.1859  164.9902 O.3     1  UNL1       -0.4506
     14 C         137.7420  142.0655  164.4473 C.3     1  UNL1        0.2754
     15 C         140.1018  137.5491  163.0635 C.3     1  UNL1        0.0978
     16 C         139.3450  138.5824  163.8445 C.ar    1  UNL1        0.2369
     17 N         139.0294  139.9760  163.3882 N.ar    1  UNL1       -0.1913
     18 C         138.2604  140.6583  164.4805 C.ar    1  UNL1        0.2247
     19 N         138.1008  139.6864  165.6118 N.ar    1  UNL1       -0.0567
     20 O         138.7712  138.4034  165.2187 O.2     1  UNL1       -0.3372
     21 C         141.3843  142.0666  166.0745 C.3     1  UNL1        0.1520
     22 C         141.6684  142.3669  167.5165 C.ar    1  UNL1        0.0818
     23 C         140.5915  142.9396  168.3895 C.ar    1  UNL1        0.0167
     24 C         140.8755  143.2399  169.8314 C.ar    1  UNL1        0.0029
     25 C         142.2365  142.9673  170.4003 C.ar    1  UNL1        0.0207
     26 C         143.3133  142.3945  169.5272 C.ar    1  UNL1        0.0985
     27 N         143.0293  142.0943  168.0854 N.ar    1  UNL1       -0.2462
@<TRIPOS>BOND
     1    15    16    1
     2    16    17   ar
     3    17    18   ar
     4    18    14    1
     5    14    13    1
     6    13     1    1
     7     1     2   ar
     8     2     3   ar
     9     3     4    1
    10     3     5   ar
    11     5     6   ar
    12     6     7   ar
    13     7     8   ar
    14     8     9   ar
    15     9    21    1
    16    21    22    1
    17    22    23   ar
    18    23    24   ar
    19    24    25   ar
    20    25    26   ar
    21    26    27   ar
    22     9    10   ar
    23    18    19   ar
    24    19    20   ar
    25    20    16   ar
    26    10     1   ar
    27    10     6   ar
    28    27    22   ar
    29     4    11    1
    30     4    12    1
@<TRIPOS>MOLECULE
*****
 27 30 0 0 0
SMALL
GASTEIGER

@<TRIPOS>ATOM
      1 C         142.6281  139.9194  167.3360 C.ar    1  UNL1        0.2454
      2 N         143.0796  138.8105  168.2396 N.ar    1  UNL1       -0.1778
      3 C         142.6872  138.8159  169.6872 C.ar    1  UNL1        0.2163
      4 N         143.1388  137.7069  170.5909 N.pl3   1  UNL1       -0.3274
      5 N         141.8433  139.9302  170.2315 N.ar    1  UNL1       -0.2123
      6 C         141.3918  141.0391  169.3279 C.ar    1  UNL1        0.1060
      7 C         140.5592  142.2615  169.5780 C.ar    1  UNL1        0.0395
      8 C         140.4371  143.0116  168.2848 C.ar    1  UNL1        0.0779
      9 N         141.1941  142.2528  167.2354 N.ar    1  UNL1       -0.3154
     10 C         141.7842  141.0337  167.8802 C.ar    1  UNL1        0.1322
     11 H         143.6927  136.9756  170.2337 H       1  UNL1        0.1452
     12 H         142.8813  137.7105  171.5411 H       1  UNL1        0.1452
     13 O         143.0205  139.9140  165.8882 O.3     1  UNL1       -0.4506
     14 C         142.5441  138.8143  164.9861 C.3     1  UNL1        0.2754
     15 C         138.1105  138.4057  162.1475 C.3     1  UNL1        0.0978
     16 C         139.0572  138.5416  163.3032 C.ar    1  UNL1        0.2369
     17 N         140.5540  138.5870  163.2162 N.ar    1  UNL1       -0.1913
     18 C         141.0950  138.7294  164.6079 C.ar    1  UNL1        0.2247
     19 N         139.9326  138.7721  165.5550 N.ar    1  UNL1       -0.0567
     20 O         138.6732  138.6560  164.7486 O.2     1  UNL1       -0.3372
     21 C         141.3361  142.6443  165.7944 C.3     1  UNL1        0.1520
     22 C         140.1337  143.0902  165.0163 C.ar    1  UNL1        0.0818
     23 C         138.9403  142.1893  164.8985 C.ar    1  UNL1        0.0167
     24 C         137.7379  142.6351  164.1205 C.ar    1  UNL1        0.0029
     25 C         137.7290  143.9820  163.4602 C.ar    1  UNL1        0.0207
     26 C         138.9225  144.8829  163.5781 C.ar    1  UNL1        0.0985
     27 N         140.1248  144.4371  164.3561 N.ar    1  UNL1       -0.2462
@<TRIPOS>BOND
     1    15    16    1
     2    16    17   ar
     3    17    18   ar
     4    18    14    1
     5    14    13    1
     6    13     1    1
     7     1     2   ar
     8     2     3   ar
     9     3     4    1
    10     3     5   ar
    11     5     6   ar
    12     6     7   ar
    13     7     8   ar
    14     8     9   ar
    15     9    21    1
    16    21    22    1
    17    22    23   ar
    18    23    24   ar
    19    24    25   ar
    20    25    26   ar
    21    26    27   ar
    22     9    10   ar
    23    18    19   ar
    24    19    20   ar
    25    20    16   ar
    26    10     1   ar
    27    10     6   ar
    28    27    22   ar
    29     4    11    1
    30     4    12    1
