@<TRIPOS>MOLECULE
*****
 43 48 0 0 0
SMALL
GASTEIGER

@<TRIPOS>ATOM
      1 N         140.0758  138.7365  160.8119 N.3     1  UNL1       -0.2688
      2 C         139.7357  139.5719  159.6134 C.3     1  UNL1        0.0741
      3 C         140.8219  140.2832  158.8623 C.3     1  UNL1        0.0372
      4 C         142.2483  140.1590  159.3097 C.3     1  UNL1        0.0799
      5 C         142.5883  139.3236  160.5082 C.3     1  UNL1        0.0372
      6 C         141.5021  138.6124  161.2593 C.3     1  UNL1        0.0741
      7 N         143.3346  140.8702  158.5586 N.am    1  UNL1       -0.2618
      8 C         143.9297  140.4396  157.2508 C.2     1  UNL1        0.3074
      9 O         143.5431  139.2222  156.4644 O.2     1  UNL1       -0.2523
     10 N         144.9794  141.4402  156.8673 N.am    1  UNL1       -0.2635
     11 C         145.0329  142.4893  157.9381 C.3     1  UNL1        0.1192
     12 C         144.0164  142.1370  158.9834 C.3     1  UNL1        0.1191
     13 C         145.8267  141.3990  155.6302 C.3     1  UNL1        0.0819
     14 C         147.2634  141.8257  155.6908 C.3     1  UNL1        0.0520
     15 C         148.1107  141.7845  154.4537 C.3     1  UNL1        0.1439
     16 O         147.5213  141.3166  153.1561 O.3     1  UNL1       -0.3537
     17 C         146.0845  140.8899  153.0957 C.3     1  UNL1        0.1439
     18 C         145.2372  140.9311  154.3327 C.3     1  UNL1        0.0520
     19 C         143.7317  142.9149  160.2339 C.ar    1  UNL1       -0.0026
     20 C         142.4452  143.6747  160.3680 C.ar    1  UNL1       -0.0026
     21 C         142.1605  144.4526  161.6186 C.ar    1  UNL1       -0.0003
     22 C         143.1622  144.4708  162.7349 C.ar    1  UNL1       -0.0000
     23 C         144.4486  143.7110  162.6008 C.ar    1  UNL1       -0.0003
     24 C         144.7333  142.9332  161.3503 C.ar    1  UNL1       -0.0026
     25 C         138.9895  138.0253  161.5631 C.3     1  UNL1        0.1003
     26 C         138.2290  139.5005  163.5619 C.ar    1  UNL1        0.0594
     27 N         138.0791  139.7085  165.0398 N.ar    1  UNL1       -0.2160
     28 C         138.5398  138.6493  165.9968 C.ar    1  UNL1        0.2293
     29 C         139.1505  137.3822  165.4759 C.ar    1  UNL1        0.0578
     30 C         139.3004  137.1742  163.9980 C.ar    1  UNL1        0.0031
     31 C         138.8396  138.2333  163.0410 C.ar    1  UNL1        0.0077
     32 C         138.5868  141.8013  162.4094 C.3     1  UNL1        0.0067
     33 C         137.7682  140.5597  162.6049 C.3     1  UNL1        0.0456
     34 O         138.3899  138.8574  167.4748 O.3     1  UNL1       -0.4361
     35 C         139.0402  140.0363  168.1360 C.ar    1  UNL1        0.1472
     36 C         138.7823  140.3195  169.5863 C.ar    1  UNL1        0.0376
     37 C         139.4326  141.4984  170.2475 C.ar    1  UNL1        0.0043
     38 C         140.3409  142.3942  169.4583 C.ar    1  UNL1        0.0142
     39 C         140.5988  142.1111  168.0081 C.ar    1  UNL1        0.0043
     40 C         139.9484  140.9321  167.3469 C.ar    1  UNL1        0.0376
     41 C         140.9912  143.5732  170.1195 C.2     1  UNL1        0.0729
     42 O         140.2282  144.8535  170.2886 O.co2   1  UNL1       -0.5446
     43 O         142.4046  143.4718  170.6116 O.co2   1  UNL1       -0.5446
@<TRIPOS>UNITY_ATOM_ATTR
42 1
charge -1
@<TRIPOS>BOND
     1    32    33    1
     2    33    26    1
     3    26    27   ar
     4    27    28   ar
     5    28    34    1
     6    34    35    1
     7    35    36   ar
     8    36    37   ar
     9    37    38   ar
    10    38    41    1
    11    41    42   ar
    12    41    43   ar
    13    38    39   ar
    14    39    40   ar
    15    28    29   ar
    16    29    30   ar
    17    30    31   ar
    18    31    25    1
    19    25     1    1
    20     1     2    1
    21     2     3    1
    22     3     4    1
    23     4     7    1
    24     7     8   am
    25     8     9    2
    26     8    10   am
    27    10    13    1
    28    13    14    1
    29    14    15    1
    30    15    16    1
    31    16    17    1
    32    17    18    1
    33    10    11    1
    34    11    12    1
    35    12    19    1
    36    19    20   ar
    37    20    21   ar
    38    21    22   ar
    39    22    23   ar
    40    23    24   ar
    41     4     5    1
    42     5     6    1
    43    31    26   ar
    44     6     1    1
    45    40    35   ar
    46    12     7    1
    47    24    19   ar
    48    18    13    1
@<TRIPOS>MOLECULE
*****
 43 48 0 0 0
SMALL
GASTEIGER

@<TRIPOS>ATOM
      1 N         143.6347  141.8675  161.1381 N.3     1  UNL1       -0.2688
      2 C         144.0371  140.7853  162.0958 C.3     1  UNL1        0.0741
      3 C         143.2563  140.5733  163.3590 C.3     1  UNL1        0.0372
      4 C         142.0733  141.4436  163.6645 C.3     1  UNL1        0.0799
      5 C         141.6710  142.5257  162.7068 C.3     1  UNL1        0.0372
      6 C         142.4518  142.7376  161.4436 C.3     1  UNL1        0.0741
      7 N         141.2926  141.2316  164.9276 N.am    1  UNL1       -0.2618
      8 C         141.6682  141.7323  166.2908 C.2     1  UNL1        0.3074
      9 O         142.8904  142.5329  166.6301 O.2     1  UNL1       -0.2523
     10 N         140.6069  141.2919  167.2551 N.am    1  UNL1       -0.2635
     11 C         139.5755  140.5190  166.4878 C.3     1  UNL1        0.1192
     12 C         139.9992  140.4817  165.0494 C.3     1  UNL1        0.1191
     13 C         140.5816  141.5748  168.7279 C.3     1  UNL1        0.0819
     14 C         140.3306  142.9695  169.2195 C.3     1  UNL1        0.0520
     15 C         140.3053  143.2524  170.6923 C.3     1  UNL1        0.1439
     16 O         140.5310  142.1405  171.6736 O.3     1  UNL1       -0.3537
     17 C         140.7820  140.7458  171.1820 C.3     1  UNL1        0.1439
     18 C         140.8073  140.4630  169.7091 C.3     1  UNL1        0.0520
     19 C         139.2595  139.8121  163.9294 C.ar    1  UNL1       -0.0026
     20 C         139.3300  138.3223  163.7691 C.ar    1  UNL1       -0.0026
     21 C         138.5902  137.6526  162.6491 C.ar    1  UNL1       -0.0003
     22 C         137.7800  138.4727  161.6895 C.ar    1  UNL1       -0.0000
     23 C         137.7095  139.9625  161.8498 C.ar    1  UNL1       -0.0003
     24 C         138.4492  140.6321  162.9697 C.ar    1  UNL1       -0.0026
     25 C         144.4154  142.0794  159.8750 C.3     1  UNL1        0.1003
     26 C         144.9648  141.3974  157.4289 C.ar    1  UNL1        0.0594
     27 N         144.7053  140.5307  156.2325 N.ar    1  UNL1       -0.2160
     28 C         143.6368  139.4793  156.2857 C.ar    1  UNL1        0.2293
     29 C         142.8278  139.2946  157.5353 C.ar    1  UNL1        0.0578
     30 C         143.0874  140.1613  158.7317 C.ar    1  UNL1        0.0031
     31 C         144.1559  141.2127  158.6785 C.ar    1  UNL1        0.0077
     32 C         147.1847  142.3007  156.4259 C.3     1  UNL1        0.0067
     33 C         146.0333  142.4488  157.3757 C.3     1  UNL1        0.0456
     34 O         143.3772  138.6125  155.0893 O.3     1  UNL1       -0.4361
     35 C         143.0209  137.1671  155.2733 C.ar    1  UNL1        0.1472
     36 C         141.6043  136.7134  155.0800 C.ar    1  UNL1        0.0376
     37 C         141.2480  135.2680  155.2641 C.ar    1  UNL1        0.0043
     38 C         142.3084  134.2763  155.6415 C.ar    1  UNL1        0.0142
     39 C         143.7250  134.7301  155.8348 C.ar    1  UNL1        0.0043
     40 C         144.0812  136.1755  155.6507 C.ar    1  UNL1        0.0376
     41 C         141.9521  132.8309  155.8256 C.2     1  UNL1        0.0729
     42 O         140.9968  132.1675  154.8785 O.co2   1  UNL1       -0.5446
     43 O         142.5513  132.0490  156.9569 O.co2   1  UNL1       -0.5446
@<TRIPOS>UNITY_ATOM_ATTR
42 1
charge -1
@<TRIPOS>BOND
     1    32    33    1
     2    33    26    1
     3    26    27   ar
     4    27    28   ar
     5    28    34    1
     6    34    35    1
     7    35    36   ar
     8    36    37   ar
     9    37    38   ar
    10    38    41    1
    11    41    42   ar
    12    41    43   ar
    13    38    39   ar
    14    39    40   ar
    15    28    29   ar
    16    29    30   ar
    17    30    31   ar
    18    31    25    1
    19    25     1    1
    20     1     2    1
    21     2     3    1
    22     3     4    1
    23     4     7    1
    24     7     8   am
    25     8     9    2
    26     8    10   am
    27    10    13    1
    28    13    14    1
    29    14    15    1
    30    15    16    1
    31    16    17    1
    32    17    18    1
    33    10    11    1
    34    11    12    1
    35    12    19    1
    36    19    20   ar
    37    20    21   ar
    38    21    22   ar
    39    22    23   ar
    40    23    24   ar
    41     4     5    1
    42     5     6    1
    43    31    26   ar
    44     6     1    1
    45    40    35   ar
    46    12     7    1
    47    24    19   ar
    48    18    13    1
@<TRIPOS>MOLECULE
*****
 43 48 0 0 0
SMALL
GASTEIGER

@<TRIPOS>ATOM
      1 N         139.2652  139.1707  160.1000 N.3     1  UNL1       -0.2688
      2 C         140.6511  138.8531  160.5782 C.3     1  UNL1        0.0741
      3 C         141.8144  138.9726  159.6388 C.3     1  UNL1        0.0372
      4 C         141.5919  139.4097  158.2212 C.3     1  UNL1        0.0799
      5 C         140.2061  139.7273  157.7431 C.3     1  UNL1        0.0372
      6 C         139.0428  139.6078  158.6824 C.3     1  UNL1        0.0741
      7 N         142.7552  139.5292  157.2818 N.am    1  UNL1       -0.2618
      8 C         143.6901  140.6978  157.1804 C.2     1  UNL1        0.3074
      9 O         143.6260  141.9520  158.0006 O.2     1  UNL1       -0.2523
     10 N         144.7006  140.3919  156.1149 N.am    1  UNL1       -0.2635
     11 C         144.3901  139.0343  155.5577 C.3     1  UNL1        0.1192
     12 C         143.1878  138.5011  156.2789 C.3     1  UNL1        0.1191
     13 C         145.8242  141.2866  155.6824 C.3     1  UNL1        0.0819
     14 C         146.1980  141.3735  154.2323 C.3     1  UNL1        0.0520
     15 C         147.3216  142.2682  153.7999 C.3     1  UNL1        0.1439
     16 O         148.0714  143.0759  154.8175 O.3     1  UNL1       -0.3537
     17 C         147.6975  142.9889  156.2675 C.3     1  UNL1        0.1439
     18 C         146.5739  142.0943  156.7000 C.3     1  UNL1        0.0520
     19 C         142.5331  137.1730  156.0392 C.ar    1  UNL1       -0.0026
     20 C         141.2326  137.1013  155.2949 C.ar    1  UNL1       -0.0026
     21 C         140.5779  135.7732  155.0552 C.ar    1  UNL1       -0.0003
     22 C         141.2235  134.5168  155.5598 C.ar    1  UNL1       -0.0000
     23 C         142.5238  134.5885  156.3041 C.ar    1  UNL1       -0.0003
     24 C         143.1785  135.9165  156.5438 C.ar    1  UNL1       -0.0026
     25 C         138.1019  139.0512  161.0393 C.3     1  UNL1        0.1003
     26 C         137.9564  140.1453  163.3913 C.ar    1  UNL1        0.0594
     27 N         138.1913  140.0796  164.8713 N.ar    1  UNL1       -0.2160
     28 C         138.8065  138.8542  165.4795 C.ar    1  UNL1        0.2293
     29 C         139.1869  137.6944  164.6075 C.ar    1  UNL1        0.0578
     30 C         138.9521  137.7601  163.1275 C.ar    1  UNL1        0.0031
     31 C         138.3368  138.9855  162.5194 C.ar    1  UNL1        0.0077
     32 C         137.8432  142.7311  163.1667 C.3     1  UNL1        0.0067
     33 C         137.3411  141.3707  162.7832 C.3     1  UNL1        0.0456
     34 O         139.0414  138.7885  166.9596 O.3     1  UNL1       -0.4361
     35 C         139.5294  140.0008  167.6960 C.ar    1  UNL1        0.1472
     36 C         140.3923  141.0075  166.9946 C.ar    1  UNL1        0.0376
     37 C         140.8803  142.2198  167.7310 C.ar    1  UNL1        0.0043
     38 C         140.5054  142.4253  169.1688 C.ar    1  UNL1        0.0142
     39 C         139.6425  141.4185  169.8701 C.ar    1  UNL1        0.0043
     40 C         139.1545  140.2063  169.1337 C.ar    1  UNL1        0.0376
     41 C         140.9934  143.6375  169.9052 C.2     1  UNL1        0.0729
     42 O         140.0601  144.7823  170.1667 O.co2   1  UNL1       -0.5446
     43 O         142.4146  143.7049  170.3802 O.co2   1  UNL1       -0.5446
@<TRIPOS>UNITY_ATOM_ATTR
42 1
charge -1
@<TRIPOS>BOND
     1    32    33    1
     2    33    26    1
     3    26    27   ar
     4    27    28   ar
     5    28    34    1
     6    34    35    1
     7    35    36   ar
     8    36    37   ar
     9    37    38   ar
    10    38    41    1
    11    41    42   ar
    12    41    43   ar
    13    38    39   ar
    14    39    40   ar
    15    28    29   ar
    16    29    30   ar
    17    30    31   ar
    18    31    25    1
    19    25     1    1
    20     1     2    1
    21     2     3    1
    22     3     4    1
    23     4     7    1
    24     7     8   am
    25     8     9    2
    26     8    10   am
    27    10    13    1
    28    13    14    1
    29    14    15    1
    30    15    16    1
    31    16    17    1
    32    17    18    1
    33    10    11    1
    34    11    12    1
    35    12    19    1
    36    19    20   ar
    37    20    21   ar
    38    21    22   ar
    39    22    23   ar
    40    23    24   ar
    41     4     5    1
    42     5     6    1
    43    31    26   ar
    44     6     1    1
    45    40    35   ar
    46    12     7    1
    47    24    19   ar
    48    18    13    1
@<TRIPOS>MOLECULE
*****
 43 48 0 0 0
SMALL
GASTEIGER

@<TRIPOS>ATOM
      1 N         143.3650  140.1349  160.5980 N.3     1  UNL1       -0.2688
      2 C         142.2802  139.8982  159.5894 C.3     1  UNL1        0.0741
      3 C         141.6875  141.0546  158.8401 C.3     1  UNL1        0.0372
      4 C         142.1796  142.4477  159.0994 C.3     1  UNL1        0.0799
      5 C         143.2644  142.6844  160.1079 C.3     1  UNL1        0.0372
      6 C         143.8571  141.5280  160.8572 C.3     1  UNL1        0.0741
      7 N         141.5870  143.6041  158.3500 N.am    1  UNL1       -0.2618
      8 C         141.9115  144.0007  156.9403 C.2     1  UNL1        0.3074
      9 O         142.8858  143.3105  156.0324 O.2     1  UNL1       -0.2523
     10 N         141.0908  145.2086  156.5979 N.am    1  UNL1       -0.2635
     11 C         140.2590  145.5586  157.7960 C.3     1  UNL1        0.1192
     12 C         140.5656  144.5670  158.8789 C.3     1  UNL1        0.1191
     13 C         141.1003  145.9384  155.2874 C.3     1  UNL1        0.0819
     14 C         140.2841  147.1855  155.1176 C.3     1  UNL1        0.0520
     15 C         140.2936  147.9153  153.8072 C.3     1  UNL1        0.1439
     16 O         141.1192  147.3980  152.6666 O.3     1  UNL1       -0.3537
     17 C         141.9353  146.1510  152.8365 C.3     1  UNL1        0.1439
     18 C         141.9258  145.4212  154.1469 C.3     1  UNL1        0.0520
     19 C         139.9576  144.5426  160.2499 C.ar    1  UNL1       -0.0026
     20 C         140.1069  145.7273  161.1578 C.ar    1  UNL1       -0.0026
     21 C         139.4989  145.7029  162.5289 C.ar    1  UNL1       -0.0003
     22 C         138.7416  144.4938  162.9920 C.ar    1  UNL1       -0.0000
     23 C         138.5923  143.3091  162.0842 C.ar    1  UNL1       -0.0003
     24 C         139.2003  143.3335  160.7132 C.ar    1  UNL1       -0.0026
     25 C         143.9577  138.9785  161.3473 C.3     1  UNL1        0.1003
     26 C         142.5552  138.2134  163.3962 C.ar    1  UNL1        0.0594
     27 N         142.3750  138.1108  164.8817 N.ar    1  UNL1       -0.2160
     28 C         143.4170  138.6708  165.8041 C.ar    1  UNL1        0.2293
     29 C         144.6392  139.3334  165.2409 C.ar    1  UNL1        0.0578
     30 C         144.8194  139.4359  163.7553 C.ar    1  UNL1        0.0031
     31 C         143.7774  138.8759  162.8330 C.ar    1  UNL1        0.0077
     32 C         140.1966  138.3544  162.3159 C.3     1  UNL1        0.0067
     33 C         141.5133  137.6534  162.4738 C.3     1  UNL1        0.0456
     34 O         143.2367  138.5683  167.2897 O.3     1  UNL1       -0.4361
     35 C         142.5100  139.6494  168.0335 C.ar    1  UNL1        0.1472
     36 C         141.8512  140.7661  167.2791 C.ar    1  UNL1        0.0376
     37 C         141.1245  141.8472  168.0228 C.ar    1  UNL1        0.0043
     38 C         141.0566  141.8116  169.5209 C.ar    1  UNL1        0.0142
     39 C         141.7154  140.6949  170.2752 C.ar    1  UNL1        0.0043
     40 C         142.4421  139.6138  169.5315 C.ar    1  UNL1        0.0376
     41 C         140.3299  142.8927  170.2646 C.2     1  UNL1        0.0729
     42 O         139.9121  142.6730  171.6884 O.co2   1  UNL1       -0.5446
     43 O         140.0209  144.1935  169.5844 O.co2   1  UNL1       -0.5446
@<TRIPOS>UNITY_ATOM_ATTR
42 1
charge -1
@<TRIPOS>BOND
     1    32    33    1
     2    33    26    1
     3    26    27   ar
     4    27    28   ar
     5    28    34    1
     6    34    35    1
     7    35    36   ar
     8    36    37   ar
     9    37    38   ar
    10    38    41    1
    11    41    42   ar
    12    41    43   ar
    13    38    39   ar
    14    39    40   ar
    15    28    29   ar
    16    29    30   ar
    17    30    31   ar
    18    31    25    1
    19    25     1    1
    20     1     2    1
    21     2     3    1
    22     3     4    1
    23     4     7    1
    24     7     8   am
    25     8     9    2
    26     8    10   am
    27    10    13    1
    28    13    14    1
    29    14    15    1
    30    15    16    1
    31    16    17    1
    32    17    18    1
    33    10    11    1
    34    11    12    1
    35    12    19    1
    36    19    20   ar
    37    20    21   ar
    38    21    22   ar
    39    22    23   ar
    40    23    24   ar
    41     4     5    1
    42     5     6    1
    43    31    26   ar
    44     6     1    1
    45    40    35   ar
    46    12     7    1
    47    24    19   ar
    48    18    13    1
@<TRIPOS>MOLECULE
*****
 43 48 0 0 0
SMALL
GASTEIGER

@<TRIPOS>ATOM
      1 N         142.3131  139.0423  161.0789 N.3     1  UNL1       -0.2688
      2 C         140.9217  138.4849  161.0213 C.3     1  UNL1        0.0741
      3 C         139.8830  139.1480  160.1660 C.3     1  UNL1        0.0372
      4 C         140.2357  140.3684  159.3683 C.3     1  UNL1        0.0799
      5 C         141.6271  140.9257  159.4259 C.3     1  UNL1        0.0372
      6 C         142.6658  140.2626  160.2812 C.3     1  UNL1        0.0741
      7 N         139.1971  141.0314  158.5130 N.am    1  UNL1       -0.2618
      8 C         138.4579  140.3968  157.3724 C.2     1  UNL1        0.3074
      9 O         138.6278  138.9878  156.8868 O.2     1  UNL1       -0.2523
     10 N         137.5192  141.4186  156.8026 N.am    1  UNL1       -0.2635
     11 C         137.6781  142.6847  157.5911 C.3     1  UNL1        0.1192
     12 C         138.7151  142.4454  158.6481 C.3     1  UNL1        0.1191
     13 C         136.5855  141.2108  155.6472 C.3     1  UNL1        0.0819
     14 C         137.0748  141.4070  154.2429 C.3     1  UNL1        0.0520
     15 C         136.1411  141.1992  153.0875 C.3     1  UNL1        0.1439
     16 O         134.7181  140.7951  153.3364 O.3     1  UNL1       -0.3537
     17 C         134.2289  140.5989  154.7407 C.3     1  UNL1        0.1439
     18 C         135.1626  140.8067  155.8961 C.3     1  UNL1        0.0520
     19 C         139.1872  143.4447  159.6623 C.ar    1  UNL1       -0.0026
     20 C         140.0669  144.5839  159.2397 C.ar    1  UNL1       -0.0026
     21 C         140.5390  145.5831  160.2539 C.ar    1  UNL1       -0.0003
     22 C         140.1314  145.4433  161.6906 C.ar    1  UNL1       -0.0000
     23 C         139.2518  144.3042  162.1132 C.ar    1  UNL1       -0.0003
     24 C         138.7797  143.3049  161.0991 C.ar    1  UNL1       -0.0026
     25 C         143.3518  138.3793  161.9342 C.3     1  UNL1        0.1003
     26 C         144.2206  139.4717  164.1255 C.ar    1  UNL1        0.0594
     27 N         144.1645  139.6122  165.6178 N.ar    1  UNL1       -0.2160
     28 C         143.1835  138.8009  166.4112 C.ar    1  UNL1        0.2293
     29 C         142.2586  137.8491  165.7123 C.ar    1  UNL1        0.0578
     30 C         142.3147  137.7085  164.2199 C.ar    1  UNL1        0.0031
     31 C         143.2957  138.5199  163.4266 C.ar    1  UNL1        0.0077
     32 C         145.0847  141.7780  163.2984 C.3     1  UNL1        0.0067
     33 C         145.2016  140.2830  163.3322 C.3     1  UNL1        0.0456
     34 O         143.1274  138.9414  167.9036 O.3     1  UNL1       -0.4361
     35 C         142.3311  140.0515  168.5230 C.ar    1  UNL1        0.1472
     36 C         143.0222  141.2943  169.0005 C.ar    1  UNL1        0.0376
     37 C         142.2259  142.4044  169.6198 C.ar    1  UNL1        0.0043
     38 C         140.7384  142.2716  169.7617 C.ar    1  UNL1        0.0142
     39 C         140.0474  141.0289  169.2841 C.ar    1  UNL1        0.0043
     40 C         140.8438  139.9188  168.6648 C.ar    1  UNL1        0.0376
     41 C         139.9421  143.3817  170.3810 C.2     1  UNL1        0.0729
     42 O         138.7706  143.0633  171.2620 O.co2   1  UNL1       -0.5446
     43 O         140.3173  144.8103  170.1194 O.co2   1  UNL1       -0.5446
@<TRIPOS>UNITY_ATOM_ATTR
42 1
charge -1
@<TRIPOS>BOND
     1    32    33    1
     2    33    26    1
     3    26    27   ar
     4    27    28   ar
     5    28    34    1
     6    34    35    1
     7    35    36   ar
     8    36    37   ar
     9    37    38   ar
    10    38    41    1
    11    41    42   ar
    12    41    43   ar
    13    38    39   ar
    14    39    40   ar
    15    28    29   ar
    16    29    30   ar
    17    30    31   ar
    18    31    25    1
    19    25     1    1
    20     1     2    1
    21     2     3    1
    22     3     4    1
    23     4     7    1
    24     7     8   am
    25     8     9    2
    26     8    10   am
    27    10    13    1
    28    13    14    1
    29    14    15    1
    30    15    16    1
    31    16    17    1
    32    17    18    1
    33    10    11    1
    34    11    12    1
    35    12    19    1
    36    19    20   ar
    37    20    21   ar
    38    21    22   ar
    39    22    23   ar
    40    23    24   ar
    41     4     5    1
    42     5     6    1
    43    31    26   ar
    44     6     1    1
    45    40    35   ar
    46    12     7    1
    47    24    19   ar
    48    18    13    1
@<TRIPOS>MOLECULE
*****
 43 48 0 0 0
SMALL
GASTEIGER

@<TRIPOS>ATOM
      1 N         142.6253  142.9148  160.5450 N.3     1  UNL1       -0.2688
      2 C         143.0517  141.5525  161.0059 C.3     1  UNL1        0.0741
      3 C         142.6197  141.0463  162.3502 C.3     1  UNL1        0.0372
      4 C         141.7612  141.9023  163.2335 C.3     1  UNL1        0.0799
      5 C         141.3348  143.2645  162.7726 C.3     1  UNL1        0.0372
      6 C         141.7668  143.7708  161.4283 C.3     1  UNL1        0.0741
      7 N         141.3292  141.3961  164.5778 N.am    1  UNL1       -0.2618
      8 C         141.9127  141.7971  165.9002 C.2     1  UNL1        0.3074
      9 O         143.0307  142.7748  166.1105 O.2     1  UNL1       -0.2523
     10 N         141.1819  141.0488  166.9754 N.am    1  UNL1       -0.2635
     11 C         140.1467  140.1853  166.3175 C.3     1  UNL1        0.1192
     12 C         140.2378  140.4000  164.8357 C.3     1  UNL1        0.1191
     13 C         141.4409  141.1469  168.4496 C.3     1  UNL1        0.0819
     14 C         142.5228  140.3191  169.0776 C.3     1  UNL1        0.0520
     15 C         142.7817  140.4171  170.5518 C.3     1  UNL1        0.1439
     16 O         141.9588  141.3429  171.3980 O.3     1  UNL1       -0.3537
     17 C         140.8770  142.1705  170.7699 C.3     1  UNL1        0.1439
     18 C         140.6180  142.0725  169.2957 C.3     1  UNL1        0.0520
     19 C         139.3868  139.7351  163.7947 C.ar    1  UNL1       -0.0026
     20 C         138.5292  140.5645  162.8854 C.ar    1  UNL1       -0.0026
     21 C         137.6782  139.8997  161.8443 C.ar    1  UNL1       -0.0003
     22 C         137.6847  138.4055  161.7125 C.ar    1  UNL1       -0.0000
     23 C         138.5422  137.5762  162.6218 C.ar    1  UNL1       -0.0003
     24 C         139.3932  138.2410  163.6628 C.ar    1  UNL1       -0.0026
     25 C         143.0573  143.4210  159.2007 C.3     1  UNL1        0.1003
     26 C         140.9382  143.2926  157.7029 C.ar    1  UNL1        0.0594
     27 N         139.9449  143.9590  156.7978 N.ar    1  UNL1       -0.2160
     28 C         140.0774  145.4200  156.4852 C.ar    1  UNL1        0.2293
     29 C         141.2031  146.2148  157.0777 C.ar    1  UNL1        0.0578
     30 C         142.1963  145.5484  157.9829 C.ar    1  UNL1        0.0031
     31 C         142.0639  144.0874  158.2955 C.ar    1  UNL1        0.0077
     32 C         139.8311  141.3733  159.0595 C.3     1  UNL1        0.0067
     33 C         140.8058  141.8316  158.0156 C.3     1  UNL1        0.0456
     34 O         139.0840  146.0864  155.5800 O.3     1  UNL1       -0.4361
     35 C         139.1746  147.5615  155.3236 C.ar    1  UNL1        0.1472
     36 C         138.5116  148.5277  156.2602 C.ar    1  UNL1        0.0376
     37 C         138.6022  150.0028  156.0038 C.ar    1  UNL1        0.0043
     38 C         139.3558  150.5118  154.8109 C.ar    1  UNL1        0.0142
     39 C         140.0188  149.5457  153.8744 C.ar    1  UNL1        0.0043
     40 C         139.9282  148.0706  154.1308 C.ar    1  UNL1        0.0376
     41 C         139.4464  151.9870  154.5545 C.2     1  UNL1        0.0729
     42 O         140.7866  152.6356  154.3719 O.co2   1  UNL1       -0.5446
     43 O         138.1968  152.8135  154.4807 O.co2   1  UNL1       -0.5446
@<TRIPOS>UNITY_ATOM_ATTR
42 1
charge -1
@<TRIPOS>BOND
     1    32    33    1
     2    33    26    1
     3    26    27   ar
     4    27    28   ar
     5    28    34    1
     6    34    35    1
     7    35    36   ar
     8    36    37   ar
     9    37    38   ar
    10    38    41    1
    11    41    42   ar
    12    41    43   ar
    13    38    39   ar
    14    39    40   ar
    15    28    29   ar
    16    29    30   ar
    17    30    31   ar
    18    31    25    1
    19    25     1    1
    20     1     2    1
    21     2     3    1
    22     3     4    1
    23     4     7    1
    24     7     8   am
    25     8     9    2
    26     8    10   am
    27    10    13    1
    28    13    14    1
    29    14    15    1
    30    15    16    1
    31    16    17    1
    32    17    18    1
    33    10    11    1
    34    11    12    1
    35    12    19    1
    36    19    20   ar
    37    20    21   ar
    38    21    22   ar
    39    22    23   ar
    40    23    24   ar
    41     4     5    1
    42     5     6    1
    43    31    26   ar
    44     6     1    1
    45    40    35   ar
    46    12     7    1
    47    24    19   ar
    48    18    13    1
@<TRIPOS>MOLECULE
*****
 43 48 0 0 0
SMALL
GASTEIGER

@<TRIPOS>ATOM
      1 N         140.9417  138.7355  160.0055 N.3     1  UNL1       -0.2688
      2 C         142.4272  138.6699  160.2032 C.3     1  UNL1        0.0741
      3 C         143.3485  138.8631  159.0353 C.3     1  UNL1        0.0372
      4 C         142.7843  139.1218  157.6698 C.3     1  UNL1        0.0799
      5 C         141.2989  139.1874  157.4721 C.3     1  UNL1        0.0372
      6 C         140.3776  138.9943  158.6399 C.3     1  UNL1        0.0741
      7 N         143.7056  139.3150  156.5019 N.am    1  UNL1       -0.2618
      8 C         144.5558  140.5227  156.2399 C.2     1  UNL1        0.3074
      9 O         144.6340  141.7493  157.0997 O.2     1  UNL1       -0.2523
     10 N         145.3141  140.2885  154.9670 N.am    1  UNL1       -0.2635
     11 C         144.9326  138.9360  154.4424 C.3     1  UNL1        0.1192
     12 C         143.9385  138.3344  155.3910 C.3     1  UNL1        0.1191
     13 C         146.2837  141.2397  154.3306 C.3     1  UNL1        0.0819
     14 C         146.0324  141.7497  152.9425 C.3     1  UNL1        0.0520
     15 C         147.0019  142.7010  152.3061 C.3     1  UNL1        0.1439
     16 O         148.2228  143.1422  153.0578 O.3     1  UNL1       -0.3537
     17 C         148.4740  142.6321  154.4458 C.3     1  UNL1        0.1439
     18 C         147.5044  141.6809  155.0822 C.3     1  UNL1        0.0520
     19 C         143.2910  136.9884  155.2528 C.ar    1  UNL1       -0.0026
     20 C         144.0181  135.7564  155.7043 C.ar    1  UNL1       -0.0026
     21 C         143.3705  134.4104  155.5662 C.ar    1  UNL1       -0.0003
     22 C         141.9960  134.2964  154.9766 C.ar    1  UNL1       -0.0000
     23 C         141.2689  135.5283  154.5253 C.ar    1  UNL1       -0.0003
     24 C         141.9164  136.8742  154.6633 C.ar    1  UNL1       -0.0026
     25 C         140.0204  138.5423  161.1733 C.3     1  UNL1        0.1003
     26 C         140.7311  140.0061  163.1988 C.ar    1  UNL1        0.0594
     27 N         141.2599  140.1190  164.5979 N.ar    1  UNL1       -0.2160
     28 C         141.6070  138.8811  165.3707 C.ar    1  UNL1        0.2293
     29 C         141.4251  137.5304  164.7444 C.ar    1  UNL1        0.0578
     30 C         140.8963  137.4174  163.3453 C.ar    1  UNL1        0.0031
     31 C         140.5493  138.6553  162.5725 C.ar    1  UNL1        0.0077
     32 C         140.6993  142.5959  162.9942 C.3     1  UNL1        0.0067
     33 C         140.3841  141.2440  162.4260 C.3     1  UNL1        0.0456
     34 O         142.1358  138.9941  166.7699 O.3     1  UNL1       -0.4361
     35 C         141.6276  140.0737  167.6789 C.ar    1  UNL1        0.1472
     36 C         142.4478  141.3084  167.9087 C.ar    1  UNL1        0.0376
     37 C         141.9395  142.3880  168.8177 C.ar    1  UNL1        0.0043
     38 C         140.6111  142.2328  169.4969 C.ar    1  UNL1        0.0142
     39 C         139.7910  140.9981  169.2671 C.ar    1  UNL1        0.0043
     40 C         140.2992  139.9185  168.3581 C.ar    1  UNL1        0.0376
     41 C         140.1029  143.3123  170.4058 C.2     1  UNL1        0.0729
     42 O         140.1585  144.7468  169.9710 O.co2   1  UNL1       -0.5446
     43 O         139.5390  142.9574  171.7498 O.co2   1  UNL1       -0.5446
@<TRIPOS>UNITY_ATOM_ATTR
42 1
charge -1
@<TRIPOS>BOND
     1    32    33    1
     2    33    26    1
     3    26    27   ar
     4    27    28   ar
     5    28    34    1
     6    34    35    1
     7    35    36   ar
     8    36    37   ar
     9    37    38   ar
    10    38    41    1
    11    41    42   ar
    12    41    43   ar
    13    38    39   ar
    14    39    40   ar
    15    28    29   ar
    16    29    30   ar
    17    30    31   ar
    18    31    25    1
    19    25     1    1
    20     1     2    1
    21     2     3    1
    22     3     4    1
    23     4     7    1
    24     7     8   am
    25     8     9    2
    26     8    10   am
    27    10    13    1
    28    13    14    1
    29    14    15    1
    30    15    16    1
    31    16    17    1
    32    17    18    1
    33    10    11    1
    34    11    12    1
    35    12    19    1
    36    19    20   ar
    37    20    21   ar
    38    21    22   ar
    39    22    23   ar
    40    23    24   ar
    41     4     5    1
    42     5     6    1
    43    31    26   ar
    44     6     1    1
    45    40    35   ar
    46    12     7    1
    47    24    19   ar
    48    18    13    1
@<TRIPOS>MOLECULE
*****
 43 48 0 0 0
SMALL
GASTEIGER

@<TRIPOS>ATOM
      1 N         141.4236  138.5401  160.6416 N.3     1  UNL1       -0.2688
      2 C         139.9272  138.4503  160.6959 C.3     1  UNL1        0.0741
      3 C         139.0903  139.3449  159.8303 C.3     1  UNL1        0.0372
      4 C         139.7498  140.3293  158.9104 C.3     1  UNL1        0.0799
      5 C         141.2461  140.4190  158.8561 C.3     1  UNL1        0.0372
      6 C         142.0830  139.5244  159.7218 C.3     1  UNL1        0.0741
      7 N         138.9130  141.2239  158.0447 N.am    1  UNL1       -0.2618
      8 C         138.1137  140.7977  156.8491 C.2     1  UNL1        0.3074
      9 O         138.0110  139.4021  156.3092 O.2     1  UNL1       -0.2523
     10 N         137.4352  142.0122  156.2882 N.am    1  UNL1       -0.2635
     11 C         137.8151  143.1891  157.1371 C.3     1  UNL1        0.1192
     12 C         138.7284  142.7018  158.2227 C.3     1  UNL1        0.1191
     13 C         136.5349  142.0442  155.0889 C.3     1  UNL1        0.0819
     14 C         136.8396  142.9678  153.9469 C.3     1  UNL1        0.0520
     15 C         135.9393  142.9999  152.7475 C.3     1  UNL1        0.1439
     16 O         134.7343  142.1083  152.6902 O.3     1  UNL1       -0.3537
     17 C         134.4297  141.1848  153.8323 C.3     1  UNL1        0.1439
     18 C         135.3300  141.1527  155.0316 C.3     1  UNL1        0.0520
     19 C         139.3484  143.5447  159.2976 C.ar    1  UNL1       -0.0026
     20 C         139.0245  143.2803  160.7383 C.ar    1  UNL1       -0.0026
     21 C         139.6444  144.1231  161.8132 C.ar    1  UNL1       -0.0003
     22 C         140.5881  145.2302  161.4475 C.ar    1  UNL1       -0.0000
     23 C         140.9120  145.4945  160.0069 C.ar    1  UNL1       -0.0003
     24 C         140.2921  144.6518  158.9321 C.ar    1  UNL1       -0.0026
     25 C         142.2604  137.6454  161.5073 C.3     1  UNL1        0.1003
     26 C         141.6823  137.7578  164.0377 C.ar    1  UNL1        0.0594
     27 N         142.0346  138.1802  165.4332 N.ar    1  UNL1       -0.2160
     28 C         143.3174  138.9126  165.6938 C.ar    1  UNL1        0.2293
     29 C         144.2479  139.2227  164.5589 C.ar    1  UNL1        0.0578
     30 C         143.8956  138.8003  163.1634 C.ar    1  UNL1        0.0031
     31 C         142.6127  138.0678  162.9028 C.ar    1  UNL1        0.0077
     32 C         139.0958  137.6103  164.2335 C.3     1  UNL1        0.0067
     33 C         140.3994  137.0254  163.7772 C.3     1  UNL1        0.0456
     34 O         143.6698  139.3350  167.0893 O.3     1  UNL1       -0.4361
     35 C         142.7909  140.3033  167.8243 C.ar    1  UNL1        0.1472
     36 C         141.9766  141.3055  167.0609 C.ar    1  UNL1        0.0376
     37 C         141.0978  142.2738  167.7958 C.ar    1  UNL1        0.0043
     38 C         141.0333  142.2399  169.2941 C.ar    1  UNL1        0.0142
     39 C         141.8476  141.2377  170.0574 C.ar    1  UNL1        0.0043
     40 C         142.7264  140.2695  169.3225 C.ar    1  UNL1        0.0376
     41 C         140.1545  143.2081  170.0290 C.2     1  UNL1        0.0729
     42 O         139.5409  142.8174  171.3408 O.co2   1  UNL1       -0.5446
     43 O         139.8892  144.5672  169.4521 O.co2   1  UNL1       -0.5446
@<TRIPOS>UNITY_ATOM_ATTR
42 1
charge -1
@<TRIPOS>BOND
     1    32    33    1
     2    33    26    1
     3    26    27   ar
     4    27    28   ar
     5    28    34    1
     6    34    35    1
     7    35    36   ar
     8    36    37   ar
     9    37    38   ar
    10    38    41    1
    11    41    42   ar
    12    41    43   ar
    13    38    39   ar
    14    39    40   ar
    15    28    29   ar
    16    29    30   ar
    17    30    31   ar
    18    31    25    1
    19    25     1    1
    20     1     2    1
    21     2     3    1
    22     3     4    1
    23     4     7    1
    24     7     8   am
    25     8     9    2
    26     8    10   am
    27    10    13    1
    28    13    14    1
    29    14    15    1
    30    15    16    1
    31    16    17    1
    32    17    18    1
    33    10    11    1
    34    11    12    1
    35    12    19    1
    36    19    20   ar
    37    20    21   ar
    38    21    22   ar
    39    22    23   ar
    40    23    24   ar
    41     4     5    1
    42     5     6    1
    43    31    26   ar
    44     6     1    1
    45    40    35   ar
    46    12     7    1
    47    24    19   ar
    48    18    13    1
@<TRIPOS>MOLECULE
*****
 43 48 0 0 0
SMALL
GASTEIGER

@<TRIPOS>ATOM
      1 N         143.1476  142.4497  160.6611 N.3     1  UNL1       -0.2688
      2 C         142.3384  143.4755  161.3982 C.3     1  UNL1        0.0741
      3 C         141.7431  143.1426  162.7342 C.3     1  UNL1        0.0372
      4 C         141.9569  141.7840  163.3330 C.3     1  UNL1        0.0799
      5 C         142.7660  140.7583  162.5959 C.3     1  UNL1        0.0372
      6 C         143.3613  141.0912  161.2599 C.3     1  UNL1        0.0741
      7 N         141.3615  141.4511  164.6690 N.am    1  UNL1       -0.2618
      8 C         141.8590  141.9310  166.0002 C.2     1  UNL1        0.3074
      9 O         143.0391  142.8281  166.2292 O.2     1  UNL1       -0.2523
     10 N         140.9691  141.3564  167.0622 N.am    1  UNL1       -0.2635
     11 C         139.9217  140.5212  166.3874 C.3     1  UNL1        0.1192
     12 C         140.1642  140.5798  164.9083 C.3     1  UNL1        0.1191
     13 C         141.1032  141.5779  168.5397 C.3     1  UNL1        0.0819
     14 C         142.0472  140.7323  169.3422 C.3     1  UNL1        0.0520
     15 C         142.1812  140.9539  170.8197 C.3     1  UNL1        0.1439
     16 O         141.3714  142.0210  171.4946 O.3     1  UNL1       -0.3537
     17 C         140.4275  142.8665  170.6920 C.3     1  UNL1        0.1439
     18 C         140.2934  142.6449  169.2146 C.3     1  UNL1        0.0520
     19 C         139.3520  139.8884  163.8536 C.ar    1  UNL1       -0.0026
     20 C         138.4962  140.6916  162.9194 C.ar    1  UNL1       -0.0026
     21 C         137.6840  140.0002  161.8648 C.ar    1  UNL1       -0.0003
     22 C         137.7275  138.5057  161.7443 C.ar    1  UNL1       -0.0000
     23 C         138.5832  137.7026  162.6784 C.ar    1  UNL1       -0.0003
     24 C         139.3954  138.3939  163.7330 C.ar    1  UNL1       -0.0026
     25 C         143.7429  142.7826  159.3252 C.3     1  UNL1        0.1003
     26 C         142.2971  141.3829  157.6818 C.ar    1  UNL1        0.0594
     27 N         142.1973  140.4026  156.5509 N.ar    1  UNL1       -0.2160
     28 C         143.4434  139.8414  155.9326 C.ar    1  UNL1        0.2293
     29 C         144.7893  140.2607  156.4451 C.ar    1  UNL1        0.0578
     30 C         144.8891  141.2411  157.5759 C.ar    1  UNL1        0.0031
     31 C         143.6430  141.8022  158.1943 C.ar    1  UNL1        0.0077
     32 C         140.2014  141.0839  159.1879 C.3     1  UNL1        0.0067
     33 C         141.0510  141.9441  158.3001 C.3     1  UNL1        0.0456
     34 O         143.3436  138.8610  154.8017 O.3     1  UNL1       -0.4361
     35 C         143.0050  137.4265  155.0804 C.ar    1  UNL1        0.1472
     36 C         144.0472  136.5055  155.6422 C.ar    1  UNL1        0.0376
     37 C         143.7086  135.0710  155.9210 C.ar    1  UNL1        0.0043
     38 C         142.3279  134.5576  155.6378 C.ar    1  UNL1        0.0142
     39 C         141.2858  135.4787  155.0760 C.ar    1  UNL1        0.0043
     40 C         141.6244  136.9131  154.7973 C.ar    1  UNL1        0.0376
     41 C         141.9893  133.1231  155.9166 C.2     1  UNL1        0.0729
     42 O         142.6390  132.4085  157.0642 O.co2   1  UNL1       -0.5446
     43 O         141.0009  132.4033  155.0476 O.co2   1  UNL1       -0.5446
@<TRIPOS>UNITY_ATOM_ATTR
42 1
charge -1
@<TRIPOS>BOND
     1    32    33    1
     2    33    26    1
     3    26    27   ar
     4    27    28   ar
     5    28    34    1
     6    34    35    1
     7    35    36   ar
     8    36    37   ar
     9    37    38   ar
    10    38    41    1
    11    41    42   ar
    12    41    43   ar
    13    38    39   ar
    14    39    40   ar
    15    28    29   ar
    16    29    30   ar
    17    30    31   ar
    18    31    25    1
    19    25     1    1
    20     1     2    1
    21     2     3    1
    22     3     4    1
    23     4     7    1
    24     7     8   am
    25     8     9    2
    26     8    10   am
    27    10    13    1
    28    13    14    1
    29    14    15    1
    30    15    16    1
    31    16    17    1
    32    17    18    1
    33    10    11    1
    34    11    12    1
    35    12    19    1
    36    19    20   ar
    37    20    21   ar
    38    21    22   ar
    39    22    23   ar
    40    23    24   ar
    41     4     5    1
    42     5     6    1
    43    31    26   ar
    44     6     1    1
    45    40    35   ar
    46    12     7    1
    47    24    19   ar
    48    18    13    1
