@<TRIPOS>MOLECULE
*****
 37 40 0 0 0
SMALL
GASTEIGER

@<TRIPOS>ATOM
      1 C         140.3840  143.8443  158.9269 C.3     1  UNL1        0.0758
      2 C         139.1280  143.1535  159.3689 C.3     1  UNL1        0.0370
      3 C         139.1703  141.7119  159.7812 C.3     1  UNL1        0.0741
      4 N         140.4686  140.9611  159.7516 N.3     1  UNL1       -0.2688
      5 C         141.7245  141.6519  159.3097 C.3     1  UNL1        0.0741
      6 C         141.6823  143.0935  158.8973 C.3     1  UNL1        0.0370
      7 O         139.4753  144.5887  156.1665 O.2     1  UNL1       -0.2528
      8 C         139.8874  145.6581  157.1343 C.2     1  UNL1        0.3007
      9 N         139.8451  147.0997  156.7219 N.am    1  UNL1       -0.2889
     10 N         140.3418  145.2858  158.5145 N.am    1  UNL1       -0.2905
     11 H         140.1156  147.8015  157.3571 H       1  UNL1        0.1510
     12 H         140.6122  145.9877  159.1497 H       1  UNL1        0.1509
     13 C         139.3907  147.4719  155.3417 C.3     1  UNL1        0.0933
     14 C         139.2607  148.9164  154.9589 C.3     1  UNL1        0.0465
     15 C         139.8329  149.4027  153.6605 C.3     1  UNL1        0.0041
     16 C         139.7028  150.8472  153.2778 C.3     1  UNL1        0.0002
     17 C         139.0006  151.8054  154.1936 C.3     1  UNL1        0.0025
     18 C         138.4284  151.3191  155.4920 C.3     1  UNL1        0.0293
     19 C         138.5585  149.8747  155.8747 C.3     1  UNL1        0.1121
     20 O         137.9863  149.3883  157.1733 O.3     1  UNL1       -0.3844
     21 H         138.1559  148.4377  157.2655 H       1  UNL1        0.2103
     22 C         140.5108  139.5196  160.1640 C.3     1  UNL1        0.1007
     23 C         140.0254  139.1140  161.5242 C.ar    1  UNL1        0.0129
     24 C         139.0390  138.0232  161.8192 C.ar    1  UNL1        0.0176
     25 C         138.8452  137.9631  163.3054 C.ar    1  UNL1        0.0799
     26 N         139.7119  139.0167  163.9289 N.ar    1  UNL1       -0.3038
     27 C         140.4414  139.7280  162.8280 C.ar    1  UNL1        0.0772
     28 C         139.8287  139.3079  165.3957 C.ar    1  UNL1        0.0640
     29 C         141.1683  139.6202  165.9940 C.ar    1  UNL1        0.0175
     30 C         141.2851  139.9114  167.4608 C.ar    1  UNL1        0.0053
     31 C         140.0623  139.8903  168.3294 C.ar    1  UNL1        0.0715
     32 C         138.7227  139.5780  167.7311 C.ar    1  UNL1        0.0053
     33 C         138.6059  139.2868  166.2643 C.ar    1  UNL1        0.0175
     34 C         140.1791  140.1815  169.7962 C.3     1  UNL1        0.4186
     35 F         140.2959  140.4727  171.2630 F       1  UNL1       -0.1659
     36 F         138.8098  140.7938  169.7836 F       1  UNL1       -0.1659
     37 F         141.5484  139.5692  169.8087 F       1  UNL1       -0.1659
@<TRIPOS>BOND
     1     7     8    2
     2     8     9   am
     3     9    13    1
     4    14    13    1
     5    14    15    1
     6    15    16    1
     7    16    17    1
     8    17    18    1
     9    18    19    1
    10    19    20    1
    11     8    10   am
    12    10     1    1
    13     1     2    1
    14     2     3    1
    15     3     4    1
    16     4    22    1
    17    22    23    1
    18    23    24   ar
    19    24    25   ar
    20    25    26   ar
    21    26    28    1
    22    28    29   ar
    23    29    30   ar
    24    30    31   ar
    25    31    34    1
    26    34    35    1
    27    34    36    1
    28    34    37    1
    29    31    32   ar
    30    32    33   ar
    31    26    27   ar
    32     4     5    1
    33     5     6    1
    34    19    14    1
    35     6     1    1
    36    27    23   ar
    37    33    28   ar
    38     9    11    1
    39    20    21    1
    40    10    12    1
@<TRIPOS>MOLECULE
*****
 37 40 0 0 0
SMALL
GASTEIGER

@<TRIPOS>ATOM
      1 C         142.5830  138.8568  158.5278 C.3     1  UNL1        0.0758
      2 C         141.1808  138.9785  158.0087 C.3     1  UNL1        0.0370
      3 C         140.0182  138.7362  158.9250 C.3     1  UNL1        0.0741
      4 N         140.2576  138.3724  160.3604 N.3     1  UNL1       -0.2688
      5 C         141.6596  138.2508  160.8795 C.3     1  UNL1        0.0741
      6 C         142.8223  138.4930  159.9632 C.3     1  UNL1        0.0370
      7 O         143.9756  141.5139  158.5419 O.2     1  UNL1       -0.2528
      8 C         144.4419  140.4276  157.6186 C.2     1  UNL1        0.3007
      9 N         145.6046  140.6699  156.7023 N.am    1  UNL1       -0.2889
     10 N         143.7456  139.0991  157.6116 N.am    1  UNL1       -0.2905
     11 H         145.9107  139.9569  156.0963 H       1  UNL1        0.1510
     12 H         144.0516  138.3861  157.0056 H       1  UNL1        0.1509
     13 C         146.3009  141.9984  156.7094 C.3     1  UNL1        0.0933
     14 C         147.2379  142.3600  155.5952 C.3     1  UNL1        0.0465
     15 C         148.5799  141.6970  155.4988 C.3     1  UNL1        0.0041
     16 C         149.5168  142.0587  154.3847 C.3     1  UNL1        0.0002
     17 C         149.1117  143.0834  153.3669 C.3     1  UNL1        0.0025
     18 C         147.7696  143.7464  153.4632 C.3     1  UNL1        0.0293
     19 C         146.8328  143.3847  154.5774 C.3     1  UNL1        0.1121
     20 O         145.4906  144.0477  154.6738 O.3     1  UNL1       -0.3844
     21 H         145.0142  143.7026  155.4450 H       1  UNL1        0.2103
     22 C         139.0950  138.1302  161.2766 C.3     1  UNL1        0.1007
     23 C         138.8251  139.0734  162.4114 C.ar    1  UNL1        0.0129
     24 C         137.7972  140.1658  162.4244 C.ar    1  UNL1        0.0176
     25 C         137.8726  140.8573  163.7533 C.ar    1  UNL1        0.0799
     26 N         138.9471  140.1923  164.5617 N.ar    1  UNL1       -0.3038
     27 C         139.5357  139.0898  163.7323 C.ar    1  UNL1        0.0772
     28 C         139.3603  140.5645  165.9548 C.ar    1  UNL1        0.0640
     29 C         139.0638  139.6391  167.0975 C.ar    1  UNL1        0.0175
     30 C         139.4770  140.0113  168.4905 C.ar    1  UNL1        0.0053
     31 C         140.1867  141.3089  168.7409 C.ar    1  UNL1        0.0715
     32 C         140.4832  142.2343  167.5982 C.ar    1  UNL1        0.0053
     33 C         140.0700  141.8621  166.2052 C.ar    1  UNL1        0.0175
     34 C         140.5999  141.6811  170.1340 C.3     1  UNL1        0.4186
     35 F         141.0131  142.0532  171.5271 F       1  UNL1       -0.1659
     36 F         141.8861  140.9308  169.9529 F       1  UNL1       -0.1659
     37 F         139.3137  142.4313  170.3151 F       1  UNL1       -0.1659
@<TRIPOS>BOND
     1     7     8    2
     2     8     9   am
     3     9    13    1
     4    14    13    1
     5    14    15    1
     6    15    16    1
     7    16    17    1
     8    17    18    1
     9    18    19    1
    10    19    20    1
    11     8    10   am
    12    10     1    1
    13     1     2    1
    14     2     3    1
    15     3     4    1
    16     4    22    1
    17    22    23    1
    18    23    24   ar
    19    24    25   ar
    20    25    26   ar
    21    26    28    1
    22    28    29   ar
    23    29    30   ar
    24    30    31   ar
    25    31    34    1
    26    34    35    1
    27    34    36    1
    28    34    37    1
    29    31    32   ar
    30    32    33   ar
    31    26    27   ar
    32     4     5    1
    33     5     6    1
    34    19    14    1
    35     6     1    1
    36    27    23   ar
    37    33    28   ar
    38     9    11    1
    39    20    21    1
    40    10    12    1
@<TRIPOS>MOLECULE
*****
 37 40 0 0 0
SMALL
GASTEIGER

@<TRIPOS>ATOM
      1 C         140.5267  145.0086  157.5836 C.3     1  UNL1        0.0758
      2 C         140.3783  143.5881  157.1251 C.3     1  UNL1        0.0370
      3 C         139.5338  143.2711  155.9267 C.3     1  UNL1        0.0741
      4 N         138.8378  144.3747  155.1866 N.3     1  UNL1       -0.2688
      5 C         138.9862  145.7952  155.6450 C.3     1  UNL1        0.0741
      6 C         139.8307  146.1122  156.8435 C.3     1  UNL1        0.0370
      7 O         139.4681  144.4937  160.3429 O.2     1  UNL1       -0.2528
      8 C         140.8419  145.0680  160.1617 C.2     1  UNL1        0.3007
      9 N         141.6864  145.3849  161.3603 N.am    1  UNL1       -0.2889
     10 N         141.3712  145.3255  158.7821 N.am    1  UNL1       -0.2905
     11 H         142.5880  145.7619  161.2414 H       1  UNL1        0.1510
     12 H         142.2729  145.7025  158.6632 H       1  UNL1        0.1509
     13 C         141.1570  145.1275  162.7400 C.3     1  UNL1        0.0933
     14 C         141.9825  144.3585  163.7286 C.3     1  UNL1        0.0465
     15 C         141.3190  143.4110  164.6836 C.3     1  UNL1        0.0041
     16 C         142.1445  142.6421  165.6721 C.3     1  UNL1        0.0002
     17 C         143.6335  142.8207  165.7058 C.3     1  UNL1        0.0025
     18 C         144.2969  143.7682  164.7508 C.3     1  UNL1        0.0293
     19 C         143.4715  144.5371  163.7622 C.3     1  UNL1        0.1121
     20 O         144.1349  145.4847  162.8072 O.3     1  UNL1       -0.3844
     21 H         143.4632  145.8967  162.2416 H       1  UNL1        0.2103
     22 C         137.9933  144.0578  153.9881 C.3     1  UNL1        0.1007
     23 C         137.0047  142.9310  154.0439 C.ar    1  UNL1        0.0129
     24 C         136.9122  141.7903  153.0743 C.ar    1  UNL1        0.0176
     25 C         135.7854  140.9015  153.5104 C.ar    1  UNL1        0.0799
     26 N         135.1813  141.4929  154.7495 N.ar    1  UNL1       -0.3038
     27 C         135.9349  142.7472  155.0793 C.ar    1  UNL1        0.0772
     28 C         134.0265  140.9290  155.5230 C.ar    1  UNL1        0.0640
     29 C         132.6329  141.4108  155.2480 C.ar    1  UNL1        0.0175
     30 C         131.4780  140.8469  156.0215 C.ar    1  UNL1        0.0053
     31 C         131.7168  139.8012  157.0701 C.ar    1  UNL1        0.0715
     32 C         133.1105  139.3194  157.3451 C.ar    1  UNL1        0.0053
     33 C         134.2653  139.8833  156.5716 C.ar    1  UNL1        0.0175
     34 C         130.5620  139.2373  157.8436 C.3     1  UNL1        0.4186
     35 F         129.4072  138.6734  158.6171 F       1  UNL1       -0.1659
     36 F         129.6181  140.1097  157.0703 F       1  UNL1       -0.1659
     37 F         131.5059  138.3649  158.6169 F       1  UNL1       -0.1659
@<TRIPOS>BOND
     1     7     8    2
     2     8     9   am
     3     9    13    1
     4    14    13    1
     5    14    15    1
     6    15    16    1
     7    16    17    1
     8    17    18    1
     9    18    19    1
    10    19    20    1
    11     8    10   am
    12    10     1    1
    13     1     2    1
    14     2     3    1
    15     3     4    1
    16     4    22    1
    17    22    23    1
    18    23    24   ar
    19    24    25   ar
    20    25    26   ar
    21    26    28    1
    22    28    29   ar
    23    29    30   ar
    24    30    31   ar
    25    31    34    1
    26    34    35    1
    27    34    36    1
    28    34    37    1
    29    31    32   ar
    30    32    33   ar
    31    26    27   ar
    32     4     5    1
    33     5     6    1
    34    19    14    1
    35     6     1    1
    36    27    23   ar
    37    33    28   ar
    38     9    11    1
    39    20    21    1
    40    10    12    1
@<TRIPOS>MOLECULE
*****
 37 40 0 0 0
SMALL
GASTEIGER

@<TRIPOS>ATOM
      1 C         140.6268  144.0865  159.1587 C.3     1  UNL1        0.0758
      2 C         139.5116  143.1199  159.4273 C.3     1  UNL1        0.0370
      3 C         139.8227  141.7098  159.8332 C.3     1  UNL1        0.0741
      4 N         141.2491  141.2662  159.9704 N.3     1  UNL1       -0.2688
      5 C         142.3642  142.2327  159.7018 C.3     1  UNL1        0.0741
      6 C         142.0531  143.6429  159.2959 C.3     1  UNL1        0.0370
      7 O         139.7817  144.6852  156.3432 O.2     1  UNL1       -0.2528
      8 C         139.8931  145.7959  157.3451 C.2     1  UNL1        0.3007
      9 N         139.5820  147.2061  156.9392 N.am    1  UNL1       -0.2889
     10 N         140.3157  145.4966  158.7529 N.am    1  UNL1       -0.2905
     11 H         139.6551  147.9352  157.5968 H       1  UNL1        0.1510
     12 H         140.3888  146.2256  159.4104 H       1  UNL1        0.1509
     13 C         139.1594  147.5055  155.5315 C.3     1  UNL1        0.0933
     14 C         139.1585  148.9204  155.0335 C.3     1  UNL1        0.0465
     15 C         139.8043  149.2542  153.7214 C.3     1  UNL1        0.0041
     16 C         139.8034  150.6691  153.2235 C.3     1  UNL1        0.0002
     17 C         139.1566  151.7503  154.0376 C.3     1  UNL1        0.0025
     18 C         138.5107  151.4165  155.3496 C.3     1  UNL1        0.0293
     19 C         138.5116  150.0016  155.8475 C.3     1  UNL1        0.1121
     20 O         137.8658  149.6678  157.1596 O.3     1  UNL1       -0.3844
     21 H         137.9546  148.7172  157.3311 H       1  UNL1        0.2103
     22 C         141.5602  139.8561  160.3762 C.3     1  UNL1        0.1007
     23 C         142.0036  139.5596  161.7782 C.ar    1  UNL1        0.0129
     24 C         143.2613  138.8435  162.1723 C.ar    1  UNL1        0.0176
     25 C         143.3022  138.7685  163.6699 C.ar    1  UNL1        0.0799
     26 N         142.0697  139.4383  164.2014 N.ar    1  UNL1       -0.3038
     27 C         141.2672  139.9272  163.0322 C.ar    1  UNL1        0.0772
     28 C         141.7040  139.5921  165.6479 C.ar    1  UNL1        0.0640
     29 C         140.2851  139.8862  166.0356 C.ar    1  UNL1        0.0175
     30 C         139.9194  140.0400  167.4822 C.ar    1  UNL1        0.0053
     31 C         140.9726  139.8998  168.5410 C.ar    1  UNL1        0.0715
     32 C         142.3915  139.6058  168.1534 C.ar    1  UNL1        0.0053
     33 C         142.7572  139.4519  166.7068 C.ar    1  UNL1        0.0175
     34 C         140.6069  140.0537  169.9876 C.3     1  UNL1        0.4186
     35 F         140.2412  140.2075  171.4342 F       1  UNL1       -0.1659
     36 F         141.9561  139.5319  170.3842 F       1  UNL1       -0.1659
     37 F         139.2577  140.5754  169.5910 F       1  UNL1       -0.1659
@<TRIPOS>BOND
     1     7     8    2
     2     8     9   am
     3     9    13    1
     4    14    13    1
     5    14    15    1
     6    15    16    1
     7    16    17    1
     8    17    18    1
     9    18    19    1
    10    19    20    1
    11     8    10   am
    12    10     1    1
    13     1     2    1
    14     2     3    1
    15     3     4    1
    16     4    22    1
    17    22    23    1
    18    23    24   ar
    19    24    25   ar
    20    25    26   ar
    21    26    28    1
    22    28    29   ar
    23    29    30   ar
    24    30    31   ar
    25    31    34    1
    26    34    35    1
    27    34    36    1
    28    34    37    1
    29    31    32   ar
    30    32    33   ar
    31    26    27   ar
    32     4     5    1
    33     5     6    1
    34    19    14    1
    35     6     1    1
    36    27    23   ar
    37    33    28   ar
    38     9    11    1
    39    20    21    1
    40    10    12    1
@<TRIPOS>MOLECULE
*****
 37 40 0 0 0
SMALL
GASTEIGER

@<TRIPOS>ATOM
      1 C         142.2402  138.3638  158.2854 C.3     1  UNL1        0.0758
      2 C         142.9200  138.1969  159.6121 C.3     1  UNL1        0.0370
      3 C         143.4757  139.3934  160.3259 C.3     1  UNL1        0.0741
      4 N         143.3517  140.7568  159.7130 N.3     1  UNL1       -0.2688
      5 C         142.6720  140.9238  158.3863 C.3     1  UNL1        0.0741
      6 C         142.1162  139.7272  157.6725 C.3     1  UNL1        0.0370
      7 O         144.0016  136.7454  156.4749 O.2     1  UNL1       -0.2528
      8 C         142.5652  136.3581  156.6664 C.2     1  UNL1        0.3007
      9 N         142.0095  135.1615  155.9525 N.am    1  UNL1       -0.2889
     10 N         141.6845  137.1673  157.5716 N.am    1  UNL1       -0.2905
     11 H         141.0667  134.9073  156.0782 H       1  UNL1        0.1510
     12 H         140.7417  136.9131  157.6973 H       1  UNL1        0.1509
     13 C         142.8902  134.3523  155.0473 C.3     1  UNL1        0.0933
     14 C         142.9680  132.8633  155.2113 C.3     1  UNL1        0.0465
     15 C         142.9925  131.9759  154.0022 C.3     1  UNL1        0.0041
     16 C         143.0704  130.4869  154.1663 C.3     1  UNL1        0.0002
     17 C         143.1238  129.8854  155.5393 C.3     1  UNL1        0.0025
     18 C         143.0993  130.7729  156.7484 C.3     1  UNL1        0.0293
     19 C         143.0214  132.2618  156.5843 C.3     1  UNL1        0.1121
     20 O         142.9969  133.1493  157.7934 O.3     1  UNL1       -0.3844
     21 H         142.9454  134.0764  157.5130 H       1  UNL1        0.2103
     22 C         143.9074  141.9533  160.4268 C.3     1  UNL1        0.1007
     23 C         143.9942  141.9599  161.9243 C.ar    1  UNL1        0.0129
     24 C         145.2394  141.7591  162.7362 C.ar    1  UNL1        0.0176
     25 C         144.8657  141.8436  164.1865 C.ar    1  UNL1        0.0799
     26 N         143.3896  142.0967  164.2709 N.ar    1  UNL1       -0.3038
     27 C         142.8510  142.1685  162.8728 C.ar    1  UNL1        0.0772
     28 C         142.5921  142.2508  165.5319 C.ar    1  UNL1        0.0640
     29 C         143.2320  141.9813  166.8616 C.ar    1  UNL1        0.0175
     30 C         142.4346  142.1354  168.1226 C.ar    1  UNL1        0.0053
     31 C         140.9972  142.5590  168.0541 C.ar    1  UNL1        0.0715
     32 C         140.3574  142.8285  166.7244 C.ar    1  UNL1        0.0053
     33 C         141.1548  142.6744  165.4634 C.ar    1  UNL1        0.0175
     34 C         140.1998  142.7131  169.3151 C.3     1  UNL1        0.4186
     35 F         139.4024  142.8672  170.5762 F       1  UNL1       -0.1659
     36 F         140.7836  144.0799  169.5173 F       1  UNL1       -0.1659
     37 F         139.6160  141.3462  169.1130 F       1  UNL1       -0.1659
@<TRIPOS>BOND
     1     7     8    2
     2     8     9   am
     3     9    13    1
     4    14    13    1
     5    14    15    1
     6    15    16    1
     7    16    17    1
     8    17    18    1
     9    18    19    1
    10    19    20    1
    11     8    10   am
    12    10     1    1
    13     1     2    1
    14     2     3    1
    15     3     4    1
    16     4    22    1
    17    22    23    1
    18    23    24   ar
    19    24    25   ar
    20    25    26   ar
    21    26    28    1
    22    28    29   ar
    23    29    30   ar
    24    30    31   ar
    25    31    34    1
    26    34    35    1
    27    34    36    1
    28    34    37    1
    29    31    32   ar
    30    32    33   ar
    31    26    27   ar
    32     4     5    1
    33     5     6    1
    34    19    14    1
    35     6     1    1
    36    27    23   ar
    37    33    28   ar
    38     9    11    1
    39    20    21    1
    40    10    12    1
@<TRIPOS>MOLECULE
*****
 37 40 0 0 0
SMALL
GASTEIGER

@<TRIPOS>ATOM
      1 C         140.8100  144.1870  159.1799 C.3     1  UNL1        0.0758
      2 C         139.8104  143.2083  159.7214 C.3     1  UNL1        0.0370
      3 C         140.2553  141.8411  160.1490 C.3     1  UNL1        0.0741
      4 N         141.6996  141.4526  160.0352 N.3     1  UNL1       -0.2688
      5 C         142.6991  142.4312  159.4938 C.3     1  UNL1        0.0741
      6 C         142.2543  143.7984  159.0660 C.3     1  UNL1        0.0370
      7 O         140.1190  144.7093  156.3077 O.2     1  UNL1       -0.2528
      8 C         140.0197  145.8153  157.3161 C.2     1  UNL1        0.3007
      9 N         139.5748  147.1825  156.8883 N.am    1  UNL1       -0.2889
     10 N         140.3651  145.5542  158.7522 N.am    1  UNL1       -0.2905
     11 H         139.5096  147.9085  157.5502 H       1  UNL1        0.1510
     12 H         140.2999  146.2801  159.4140 H       1  UNL1        0.1509
     13 C         139.2294  147.4437  155.4523 C.3     1  UNL1        0.0933
     14 C         139.2382  148.8469  154.9219 C.3     1  UNL1        0.0465
     15 C         139.9168  149.1521  153.6195 C.3     1  UNL1        0.0041
     16 C         139.9256  150.5552  153.0892 C.3     1  UNL1        0.0002
     17 C         139.2559  151.6530  153.8613 C.3     1  UNL1        0.0025
     18 C         138.5773  151.3478  155.1638 C.3     1  UNL1        0.0293
     19 C         138.5685  149.9447  155.6940 C.3     1  UNL1        0.1121
     20 O         137.8899  149.6394  156.9965 O.3     1  UNL1       -0.3844
     21 H         137.9763  148.6933  157.1921 H       1  UNL1        0.2103
     22 C         142.1444  140.0854  160.4629 C.3     1  UNL1        0.1007
     23 C         142.3140  139.7736  161.9204 C.ar    1  UNL1        0.0129
     24 C         142.4393  138.4046  162.5204 C.ar    1  UNL1        0.0176
     25 C         142.5908  138.5610  164.0045 C.ar    1  UNL1        0.0799
     26 N         142.5593  140.0268  164.3217 N.ar    1  UNL1       -0.3038
     27 C         142.3882  140.7762  163.0336 C.ar    1  UNL1        0.0772
     28 C         142.6780  140.6361  165.6872 C.ar    1  UNL1        0.0640
     29 C         142.3813  139.8117  166.9047 C.ar    1  UNL1        0.0175
     30 C         142.5000  140.4211  168.2702 C.ar    1  UNL1        0.0053
     31 C         142.9154  141.8548  168.4182 C.ar    1  UNL1        0.0715
     32 C         143.2121  142.6792  167.2007 C.ar    1  UNL1        0.0053
     33 C         143.0934  142.0699  165.8352 C.ar    1  UNL1        0.0175
     34 C         143.0341  142.4641  169.7837 C.3     1  UNL1        0.4186
     35 F         143.1528  143.0734  171.1492 F       1  UNL1       -0.1659
     36 F         144.2115  141.5817  170.0751 F       1  UNL1       -0.1659
     37 F         141.8567  143.3466  169.4923 F       1  UNL1       -0.1659
@<TRIPOS>BOND
     1     7     8    2
     2     8     9   am
     3     9    13    1
     4    14    13    1
     5    14    15    1
     6    15    16    1
     7    16    17    1
     8    17    18    1
     9    18    19    1
    10    19    20    1
    11     8    10   am
    12    10     1    1
    13     1     2    1
    14     2     3    1
    15     3     4    1
    16     4    22    1
    17    22    23    1
    18    23    24   ar
    19    24    25   ar
    20    25    26   ar
    21    26    28    1
    22    28    29   ar
    23    29    30   ar
    24    30    31   ar
    25    31    34    1
    26    34    35    1
    27    34    36    1
    28    34    37    1
    29    31    32   ar
    30    32    33   ar
    31    26    27   ar
    32     4     5    1
    33     5     6    1
    34    19    14    1
    35     6     1    1
    36    27    23   ar
    37    33    28   ar
    38     9    11    1
    39    20    21    1
    40    10    12    1
@<TRIPOS>MOLECULE
*****
 37 40 0 0 0
SMALL
GASTEIGER

@<TRIPOS>ATOM
      1 C         141.1085  144.5612  158.8730 C.3     1  UNL1        0.0758
      2 C         141.1225  145.0426  160.2936 C.3     1  UNL1        0.0370
      3 C         142.1416  144.5093  161.2563 C.3     1  UNL1        0.0741
      4 N         143.1469  143.4945  160.7984 N.3     1  UNL1       -0.2688
      5 C         143.1330  143.0131  159.3779 C.3     1  UNL1        0.0741
      6 C         142.1138  143.5464  158.4151 C.3     1  UNL1        0.0370
      7 O         141.9746  146.2773  156.5698 O.2     1  UNL1       -0.2528
      8 C         140.5224  145.9526  156.7587 C.2     1  UNL1        0.3007
      9 N         139.5032  146.4859  155.7960 N.am    1  UNL1       -0.2889
     10 N         140.0894  145.0945  157.9103 N.am    1  UNL1       -0.2905
     11 H         138.5501  146.2728  155.9199 H       1  UNL1        0.1510
     12 H         139.1362  144.8814  158.0343 H       1  UNL1        0.1509
     13 C         139.9362  147.3440  154.6444 C.3     1  UNL1        0.0933
     14 C         139.5324  148.7877  154.5913 C.3     1  UNL1        0.0465
     15 C         139.8168  149.6014  153.3637 C.3     1  UNL1        0.0041
     16 C         139.4130  151.0450  153.3107 C.3     1  UNL1        0.0002
     17 C         138.7247  151.6749  154.4853 C.3     1  UNL1        0.0025
     18 C         138.4403  150.8612  155.7128 C.3     1  UNL1        0.0293
     19 C         138.8441  149.4176  155.7658 C.3     1  UNL1        0.1121
     20 O         138.5597  148.6038  156.9935 O.3     1  UNL1       -0.3844
     21 H         138.8828  147.6985  156.8633 H       1  UNL1        0.2103
     22 C         144.1661  142.9612  161.7611 C.3     1  UNL1        0.1007
     23 C         143.7550  141.9873  162.8254 C.ar    1  UNL1        0.0129
     24 C         144.6802  141.2101  163.7142 C.ar    1  UNL1        0.0176
     25 C         143.8435  140.3621  164.6258 C.ar    1  UNL1        0.0799
     26 N         142.4013  140.6153  164.3004 N.ar    1  UNL1       -0.3038
     27 C         142.3466  141.6197  163.1877 C.ar    1  UNL1        0.0772
     28 C         141.2210  139.9762  164.9701 C.ar    1  UNL1        0.0640
     29 C         140.4670  140.7209  166.0316 C.ar    1  UNL1        0.0175
     30 C         139.2867  140.0819  166.7013 C.ar    1  UNL1        0.0053
     31 C         138.8604  138.6981  166.3095 C.ar    1  UNL1        0.0715
     32 C         139.6144  137.9534  165.2480 C.ar    1  UNL1        0.0053
     33 C         140.7947  138.5924  164.5783 C.ar    1  UNL1        0.0175
     34 C         137.6802  138.0590  166.9792 C.3     1  UNL1        0.4186
     35 F         136.4999  137.4200  167.6489 F       1  UNL1       -0.1659
     36 F         137.6454  139.1740  167.9820 F       1  UNL1       -0.1659
     37 F         137.7149  136.9440  165.9764 F       1  UNL1       -0.1659
@<TRIPOS>BOND
     1     7     8    2
     2     8     9   am
     3     9    13    1
     4    14    13    1
     5    14    15    1
     6    15    16    1
     7    16    17    1
     8    17    18    1
     9    18    19    1
    10    19    20    1
    11     8    10   am
    12    10     1    1
    13     1     2    1
    14     2     3    1
    15     3     4    1
    16     4    22    1
    17    22    23    1
    18    23    24   ar
    19    24    25   ar
    20    25    26   ar
    21    26    28    1
    22    28    29   ar
    23    29    30   ar
    24    30    31   ar
    25    31    34    1
    26    34    35    1
    27    34    36    1
    28    34    37    1
    29    31    32   ar
    30    32    33   ar
    31    26    27   ar
    32     4     5    1
    33     5     6    1
    34    19    14    1
    35     6     1    1
    36    27    23   ar
    37    33    28   ar
    38     9    11    1
    39    20    21    1
    40    10    12    1
@<TRIPOS>MOLECULE
*****
 37 40 0 0 0
SMALL
GASTEIGER

@<TRIPOS>ATOM
      1 C         142.2099  138.3217  160.3755 C.3     1  UNL1        0.0758
      2 C         142.5267  137.8545  161.7653 C.3     1  UNL1        0.0370
      3 C         141.4212  137.6508  162.7583 C.3     1  UNL1        0.0741
      4 N         139.9987  137.9142  162.3616 N.3     1  UNL1       -0.2688
      5 C         139.6819  138.3813  160.9719 C.3     1  UNL1        0.0741
      6 C         140.7875  138.5851  159.9788 C.3     1  UNL1        0.0370
      7 O         142.7245  141.0515  159.2428 O.2     1  UNL1       -0.2528
      8 C         143.5728  139.8903  158.8161 C.2     1  UNL1        0.3007
      9 N         144.6784  140.0941  157.8231 N.am    1  UNL1       -0.2889
     10 N         143.3155  138.5254  159.3825 N.am    1  UNL1       -0.2905
     11 H         145.2352  139.3320  157.5430 H       1  UNL1        0.1510
     12 H         143.8723  137.7633  159.1024 H       1  UNL1        0.1509
     13 C         144.9357  141.4590  157.2567 C.3     1  UNL1        0.0933
     14 C         145.8218  141.6184  156.0569 C.3     1  UNL1        0.0465
     15 C         145.5126  140.8738  154.7920 C.3     1  UNL1        0.0041
     16 C         146.3987  141.0332  153.5923 C.3     1  UNL1        0.0002
     17 C         147.5940  141.9372  153.6574 C.3     1  UNL1        0.0025
     18 C         147.9031  142.6817  154.9223 C.3     1  UNL1        0.0293
     19 C         147.0170  142.5223  156.1220 C.3     1  UNL1        0.1121
     20 O         147.3262  143.2669  157.3870 O.3     1  UNL1       -0.3844
     21 H         146.6602  143.0531  158.0591 H       1  UNL1        0.2103
     22 C         138.8932  137.7105  163.3547 C.3     1  UNL1        0.1007
     23 C         139.0104  138.2839  164.7358 C.ar    1  UNL1        0.0129
     24 C         138.0568  138.0528  165.8703 C.ar    1  UNL1        0.0176
     25 C         138.5590  138.8152  167.0606 C.ar    1  UNL1        0.0799
     26 N         139.8229  139.5176  166.6616 N.ar    1  UNL1       -0.3038
     27 C         140.1019  139.1892  165.2248 C.ar    1  UNL1        0.0772
     28 C         140.6607  140.3943  167.5444 C.ar    1  UNL1        0.0640
     29 C         140.5336  141.8864  167.4575 C.ar    1  UNL1        0.0175
     30 C         141.3714  142.7631  168.3403 C.ar    1  UNL1        0.0053
     31 C         142.3363  142.1478  169.3100 C.ar    1  UNL1        0.0715
     32 C         142.4635  140.6557  169.3969 C.ar    1  UNL1        0.0053
     33 C         141.6257  139.7790  168.5141 C.ar    1  UNL1        0.0175
     34 C         143.1741  143.0245  170.1928 C.3     1  UNL1        0.4186
     35 F         144.0119  143.9013  171.0756 F       1  UNL1       -0.1659
     36 F         142.0103  143.9531  170.3752 F       1  UNL1       -0.1659
     37 F         144.3380  142.0960  170.0105 F       1  UNL1       -0.1659
@<TRIPOS>BOND
     1     7     8    2
     2     8     9   am
     3     9    13    1
     4    14    13    1
     5    14    15    1
     6    15    16    1
     7    16    17    1
     8    17    18    1
     9    18    19    1
    10    19    20    1
    11     8    10   am
    12    10     1    1
    13     1     2    1
    14     2     3    1
    15     3     4    1
    16     4    22    1
    17    22    23    1
    18    23    24   ar
    19    24    25   ar
    20    25    26   ar
    21    26    28    1
    22    28    29   ar
    23    29    30   ar
    24    30    31   ar
    25    31    34    1
    26    34    35    1
    27    34    36    1
    28    34    37    1
    29    31    32   ar
    30    32    33   ar
    31    26    27   ar
    32     4     5    1
    33     5     6    1
    34    19    14    1
    35     6     1    1
    36    27    23   ar
    37    33    28   ar
    38     9    11    1
    39    20    21    1
    40    10    12    1
@<TRIPOS>MOLECULE
*****
 37 40 0 0 0
SMALL
GASTEIGER

@<TRIPOS>ATOM
      1 C         143.0985  135.6476  155.8031 C.3     1  UNL1        0.0758
      2 C         143.4528  137.0605  156.1615 C.3     1  UNL1        0.0370
      3 C         142.3982  138.1269  156.1390 C.3     1  UNL1        0.0741
      4 N         140.9893  137.7805  155.7581 N.3     1  UNL1       -0.2688
      5 C         140.6350  136.3677  155.3998 C.3     1  UNL1        0.0741
      6 C         141.6896  135.3012  155.4222 C.3     1  UNL1        0.0370
      7 O         143.0033  133.4875  157.8827 O.2     1  UNL1       -0.2528
      8 C         144.1055  133.5011  156.8654 C.2     1  UNL1        0.3007
      9 N         145.1601  132.4347  156.8879 N.am    1  UNL1       -0.2889
     10 N         144.1531  134.5812  155.8256 N.am    1  UNL1       -0.2905
     11 H         145.8835  132.4436  156.2202 H       1  UNL1        0.1510
     12 H         144.8765  134.5901  155.1579 H       1  UNL1        0.1509
     13 C         145.1125  131.3546  157.9277 C.3     1  UNL1        0.0933
     14 C         144.4338  130.0516  157.6251 C.3     1  UNL1        0.0465
     15 C         143.7235  129.3051  158.7151 C.3     1  UNL1        0.0041
     16 C         143.0448  128.0021  158.4125 C.3     1  UNL1        0.0002
     17 C         143.0764  127.4456  157.0199 C.3     1  UNL1        0.0025
     18 C         143.7868  128.1921  155.9299 C.3     1  UNL1        0.0293
     19 C         144.4654  129.4951  156.2325 C.3     1  UNL1        0.1121
     20 O         145.1758  130.2417  155.1425 O.3     1  UNL1       -0.3844
     21 H         145.5567  131.0571  155.5043 H       1  UNL1        0.2103
     22 C         139.9347  138.8469  155.7357 C.3     1  UNL1        0.1007
     23 C         139.3323  139.3332  157.0205 C.ar    1  UNL1        0.0129
     24 C         138.3915  140.4918  157.1702 C.ar    1  UNL1        0.0176
     25 C         138.0427  140.6209  158.6234 C.ar    1  UNL1        0.0799
     26 N         138.7679  139.5420  159.3718 N.ar    1  UNL1       -0.3038
     27 C         139.5649  138.7461  158.3811 C.ar    1  UNL1        0.0772
     28 C         138.7068  139.3012  160.8510 C.ar    1  UNL1        0.0640
     29 C         138.0371  140.3010  161.7466 C.ar    1  UNL1        0.0175
     30 C         137.9760  140.0602  163.2258 C.ar    1  UNL1        0.0053
     31 C         138.5846  138.8197  163.8096 C.ar    1  UNL1        0.0715
     32 C         139.2542  137.8199  162.9140 C.ar    1  UNL1        0.0053
     33 C         139.3153  138.0607  161.4348 C.ar    1  UNL1        0.0175
     34 C         138.5235  138.5789  165.2889 C.3     1  UNL1        0.4186
     35 F         138.4624  138.3381  166.7681 F       1  UNL1       -0.1659
     36 F         137.9047  139.9314  165.4834 F       1  UNL1       -0.1659
     37 F         139.1423  137.2264  165.0943 F       1  UNL1       -0.1659
@<TRIPOS>BOND
     1     7     8    2
     2     8     9   am
     3     9    13    1
     4    14    13    1
     5    14    15    1
     6    15    16    1
     7    16    17    1
     8    17    18    1
     9    18    19    1
    10    19    20    1
    11     8    10   am
    12    10     1    1
    13     1     2    1
    14     2     3    1
    15     3     4    1
    16     4    22    1
    17    22    23    1
    18    23    24   ar
    19    24    25   ar
    20    25    26   ar
    21    26    28    1
    22    28    29   ar
    23    29    30   ar
    24    30    31   ar
    25    31    34    1
    26    34    35    1
    27    34    36    1
    28    34    37    1
    29    31    32   ar
    30    32    33   ar
    31    26    27   ar
    32     4     5    1
    33     5     6    1
    34    19    14    1
    35     6     1    1
    36    27    23   ar
    37    33    28   ar
    38     9    11    1
    39    20    21    1
    40    10    12    1
