@<TRIPOS>MOLECULE
*****
 28 30 0 0 0
SMALL
GASTEIGER

@<TRIPOS>ATOM
      1 N         140.1686  140.2771  167.7306 N.pl3   1  UNL1       -0.1766
      2 C         141.2431  140.9841  166.9588 C.ar    1  UNL1        0.0853
      3 C         142.4597  141.7438  167.3978 C.ar    1  UNL1        0.0175
      4 C         143.3714  142.3552  166.3756 C.ar    1  UNL1        0.0014
      5 C         143.0665  142.2069  164.9144 C.ar    1  UNL1        0.0014
      6 C         141.8499  141.4472  164.4754 C.ar    1  UNL1        0.0179
      7 C         140.9382  140.8358  165.4977 C.ar    1  UNL1        0.0899
      8 N         139.6753  140.0371  165.3664 N.pl3   1  UNL1       -0.1511
      9 S         139.1997  139.6918  166.7465 S.O2    1  UNL1        0.1340
     10 O         138.4905  139.2028  167.9744 O.2     1  UNL1       -0.1342
     11 O         138.0825  139.0043  166.0190 O.2     1  UNL1       -0.1342
     12 C         139.0056  139.6514  164.0808 C.ar    1  UNL1        0.1296
     13 C         139.1971  138.2739  163.5192 C.ar    1  UNL1        0.1575
     14 F         140.0583  137.2818  164.2432 F       1  UNL1       -0.2027
     15 C         138.5275  137.8882  162.2336 C.ar    1  UNL1        0.0311
     16 C         137.6663  138.8802  161.5095 C.ar    1  UNL1        0.0047
     17 C         137.4747  140.2578  162.0711 C.ar    1  UNL1        0.0311
     18 C         138.1444  140.6435  163.3567 C.ar    1  UNL1        0.1575
     19 F         137.9529  142.0212  163.9183 F       1  UNL1       -0.2027
     20 C         140.0789  140.1736  169.2243 C.3     1  UNL1        0.1198
     21 C         141.2392  139.6385  170.0101 C.3     1  UNL1        0.0541
     22 C         142.1600  140.5825  170.7250 C.3     1  UNL1        0.1280
     23 O         143.6187  140.2563  170.8507 O.3     1  UNL1       -0.3830
     24 H         143.7984  139.4066  170.4187 H       1  UNL1        0.2104
     25 C         141.6220  141.8526  171.3142 C.3     1  UNL1        0.0982
     26 C         140.5902  143.7557  169.8775 C.3     1  UNL1        0.0859
     27 N         141.7728  143.1469  170.5711 N.3     1  UNL1       -0.2943
     28 H         142.1061  143.8362  171.2450 H       1  UNL1        0.1234
@<TRIPOS>BOND
     1    26    27    1
     2    27    25    1
     3    25    22    1
     4    22    23    1
     5    22    21    1
     6    21    20    1
     7    20     1    1
     8     1     2    1
     9     2     3   ar
    10     3     4   ar
    11     4     5   ar
    12     5     6   ar
    13     6     7   ar
    14     7     8    1
    15     8    12    1
    16    12    13   ar
    17    13    14    1
    18    13    15   ar
    19    15    16   ar
    20    16    17   ar
    21    17    18   ar
    22    18    19    1
    23     8     9    1
    24     9    10    2
    25     9    11    2
    26     9     1    1
    27     7     2   ar
    28    18    12   ar
    29    27    28    1
    30    23    24    1
@<TRIPOS>MOLECULE
*****
 28 30 0 0 0
SMALL
GASTEIGER

@<TRIPOS>ATOM
      1 N         142.7159  143.5361  164.8626 N.pl3   1  UNL1       -0.1766
      2 C         141.3663  143.9942  164.3949 C.ar    1  UNL1        0.0853
      3 C         140.9424  144.8548  163.2418 C.ar    1  UNL1        0.0175
      4 C         139.4883  145.1478  163.0194 C.ar    1  UNL1        0.0014
      5 C         138.4579  144.5802  163.9502 C.ar    1  UNL1        0.0014
      6 C         138.8818  143.7196  165.1033 C.ar    1  UNL1        0.0179
      7 C         140.3360  143.4266  165.3257 C.ar    1  UNL1        0.0899
      8 N         141.0488  142.6178  166.3686 N.pl3   1  UNL1       -0.1511
      9 S         142.5197  142.6855  166.0824 S.O2    1  UNL1        0.1340
     10 O         144.0149  142.5703  166.0498 O.2     1  UNL1       -0.1342
     11 O         142.6361  141.8108  167.2954 O.2     1  UNL1       -0.1342
     12 C         140.4040  141.8722  167.4992 C.ar    1  UNL1        0.1296
     13 C         140.3710  142.4743  168.8725 C.ar    1  UNL1        0.1575
     14 F         140.9829  143.8222  169.1155 F       1  UNL1       -0.2027
     15 C         139.7261  141.7287  170.0032 C.ar    1  UNL1        0.0311
     16 C         139.1142  140.3809  169.7604 C.ar    1  UNL1        0.0047
     17 C         139.1472  139.7787  168.3870 C.ar    1  UNL1        0.0311
     18 C         139.7921  140.5243  167.2564 C.ar    1  UNL1        0.1575
     19 F         139.8250  139.9221  165.8830 F       1  UNL1       -0.2027
     20 C         144.0309  143.8701  164.2228 C.3     1  UNL1        0.1198
     21 C         144.3546  143.3448  162.8555 C.3     1  UNL1        0.0541
     22 C         144.9936  141.9965  162.7020 C.3     1  UNL1        0.1280
     23 O         146.4207  141.7914  163.1159 O.3     1  UNL1       -0.3830
     24 H         146.7808  142.6242  163.4589 H       1  UNL1        0.2104
     25 C         144.2056  140.8533  162.1346 C.3     1  UNL1        0.0982
     26 C         143.8616  138.2982  161.8130 C.3     1  UNL1        0.0859
     27 N         144.6647  139.4426  162.3565 N.3     1  UNL1       -0.2943
     28 H         145.5965  139.3686  161.9481 H       1  UNL1        0.1234
@<TRIPOS>BOND
     1    26    27    1
     2    27    25    1
     3    25    22    1
     4    22    23    1
     5    22    21    1
     6    21    20    1
     7    20     1    1
     8     1     2    1
     9     2     3   ar
    10     3     4   ar
    11     4     5   ar
    12     5     6   ar
    13     6     7   ar
    14     7     8    1
    15     8    12    1
    16    12    13   ar
    17    13    14    1
    18    13    15   ar
    19    15    16   ar
    20    16    17   ar
    21    17    18   ar
    22    18    19    1
    23     8     9    1
    24     9    10    2
    25     9    11    2
    26     9     1    1
    27     7     2   ar
    28    18    12   ar
    29    27    28    1
    30    23    24    1
@<TRIPOS>MOLECULE
*****
 28 30 0 0 0
SMALL
GASTEIGER

@<TRIPOS>ATOM
      1 N         140.0419  140.2073  167.5862 N.pl3   1  UNL1       -0.1766
      2 C         141.1296  140.9329  166.8511 C.ar    1  UNL1        0.0853
      3 C         142.3409  141.6769  167.3297 C.ar    1  UNL1        0.0175
      4 C         143.2695  142.3143  166.3391 C.ar    1  UNL1        0.0014
      5 C         142.9867  142.2078  164.8698 C.ar    1  UNL1        0.0014
      6 C         141.7754  141.4639  164.3912 C.ar    1  UNL1        0.0179
      7 C         140.8468  140.8264  165.3818 C.ar    1  UNL1        0.0899
      8 N         139.5844  140.0349  165.2089 N.pl3   1  UNL1       -0.1511
      9 S         139.0869  139.6523  166.5713 S.O2    1  UNL1        0.1340
     10 O         138.3580  139.1308  167.7741 O.2     1  UNL1       -0.1342
     11 O         137.9796  138.9883  165.8079 O.2     1  UNL1       -0.1342
     12 C         138.9337  139.6872  163.9029 C.ar    1  UNL1        0.1296
     13 C         138.0968  140.7057  163.1873 C.ar    1  UNL1        0.1575
     14 F         137.9105  142.0720  163.7776 F       1  UNL1       -0.2027
     15 C         137.4461  140.3579  161.8813 C.ar    1  UNL1        0.0311
     16 C         137.6323  138.9916  161.2909 C.ar    1  UNL1        0.0047
     17 C         138.4692  137.9731  162.0065 C.ar    1  UNL1        0.0311
     18 C         139.1199  138.3208  163.3125 C.ar    1  UNL1        0.1575
     19 F         139.9568  137.3023  164.0281 F       1  UNL1       -0.2027
     20 C         139.9291  140.0621  169.0749 C.3     1  UNL1        0.1198
     21 C         139.8404  141.2823  169.9429 C.3     1  UNL1        0.0541
     22 C         140.7784  141.4483  171.1016 C.3     1  UNL1        0.1280
     23 O         140.3523  142.2364  172.3046 O.3     1  UNL1       -0.3830
     24 H         139.4501  142.5669  172.1717 H       1  UNL1        0.2104
     25 C         142.1425  140.8260  171.0572 C.3     1  UNL1        0.0982
     26 C         143.2263  143.1339  170.5577 C.3     1  UNL1        0.0859
     27 N         143.3231  141.6380  170.6133 N.3     1  UNL1       -0.2943
     28 H         144.0891  141.4159  171.2491 H       1  UNL1        0.1234
@<TRIPOS>BOND
     1    26    27    1
     2    27    25    1
     3    25    22    1
     4    22    23    1
     5    22    21    1
     6    21    20    1
     7    20     1    1
     8     1     2    1
     9     2     3   ar
    10     3     4   ar
    11     4     5   ar
    12     5     6   ar
    13     6     7   ar
    14     7     8    1
    15     8    12    1
    16    12    13   ar
    17    13    14    1
    18    13    15   ar
    19    15    16   ar
    20    16    17   ar
    21    17    18   ar
    22    18    19    1
    23     8     9    1
    24     9    10    2
    25     9    11    2
    26     9     1    1
    27     7     2   ar
    28    18    12   ar
    29    27    28    1
    30    23    24    1
@<TRIPOS>MOLECULE
*****
 28 30 0 0 0
SMALL
GASTEIGER

@<TRIPOS>ATOM
      1 N         138.9945  140.3332  165.2181 N.pl3   1  UNL1       -0.1766
      2 C         138.7586  141.7935  164.9694 C.ar    1  UNL1        0.0853
      3 C         137.9026  142.5163  163.9720 C.ar    1  UNL1        0.0175
      4 C         137.8672  144.0158  163.9613 C.ar    1  UNL1        0.0014
      5 C         138.6877  144.7925  164.9480 C.ar    1  UNL1        0.0014
      6 C         139.5436  144.0697  165.9454 C.ar    1  UNL1        0.0179
      7 C         139.5790  142.5702  165.9561 C.ar    1  UNL1        0.0899
      8 N         140.3220  141.5899  166.8146 N.pl3   1  UNL1       -0.1511
      9 S         139.9608  140.2073  166.3584 S.O2    1  UNL1        0.1340
     10 O         139.7942  138.7341  166.1307 O.2     1  UNL1       -0.1342
     11 O         140.8922  139.7735  167.4512 O.2     1  UNL1       -0.1342
     12 C         141.2613  141.9321  167.9328 C.ar    1  UNL1        0.1296
     13 C         140.7405  142.0777  169.3319 C.ar    1  UNL1        0.1575
     14 F         139.2801  141.8811  169.6128 F       1  UNL1       -0.2027
     15 C         141.6798  142.4199  170.4501 C.ar    1  UNL1        0.0311
     16 C         143.1401  142.6165  170.1694 C.ar    1  UNL1        0.0047
     17 C         143.6611  142.4708  168.7703 C.ar    1  UNL1        0.0311
     18 C         142.7217  142.1286  167.6520 C.ar    1  UNL1        0.1575
     19 F         143.2427  141.9830  166.2530 F       1  UNL1       -0.2027
     20 C         138.3732  139.1980  164.4595 C.3     1  UNL1        0.1198
     21 C         138.4974  139.1371  162.9658 C.3     1  UNL1        0.0541
     22 C         139.3149  138.0552  162.3247 C.3     1  UNL1        0.1280
     23 O         138.9750  137.5765  160.9443 O.3     1  UNL1       -0.3830
     24 H         138.2065  138.0665  160.6123 H       1  UNL1        0.2104
     25 C         140.4723  137.4520  163.0639 C.3     1  UNL1        0.0982
     26 C         142.8355  138.0949  162.1967 C.3     1  UNL1        0.0859
     27 N         141.7277  137.0918  162.3262 N.3     1  UNL1       -0.2943
     28 H         142.1218  136.2768  162.7960 H       1  UNL1        0.1234
@<TRIPOS>BOND
     1    26    27    1
     2    27    25    1
     3    25    22    1
     4    22    23    1
     5    22    21    1
     6    21    20    1
     7    20     1    1
     8     1     2    1
     9     2     3   ar
    10     3     4   ar
    11     4     5   ar
    12     5     6   ar
    13     6     7   ar
    14     7     8    1
    15     8    12    1
    16    12    13   ar
    17    13    14    1
    18    13    15   ar
    19    15    16   ar
    20    16    17   ar
    21    17    18   ar
    22    18    19    1
    23     8     9    1
    24     9    10    2
    25     9    11    2
    26     9     1    1
    27     7     2   ar
    28    18    12   ar
    29    27    28    1
    30    23    24    1
@<TRIPOS>MOLECULE
*****
 28 30 0 0 0
SMALL
GASTEIGER

@<TRIPOS>ATOM
      1 N         140.6817  140.9987  164.3847 N.pl3   1  UNL1       -0.1766
      2 C         141.9329  141.8250  164.3441 C.ar    1  UNL1        0.0853
      3 C         142.6722  142.4718  163.2105 C.ar    1  UNL1        0.0175
      4 C         143.9235  143.2537  163.4803 C.ar    1  UNL1        0.0014
      5 C         144.4354  143.3890  164.8838 C.ar    1  UNL1        0.0014
      6 C         143.6960  142.7422  166.0174 C.ar    1  UNL1        0.0179
      7 C         142.4448  141.9602  165.7475 C.ar    1  UNL1        0.0899
      8 N         141.5099  141.2175  166.6555 N.pl3   1  UNL1       -0.1511
      9 S         140.4203  140.6232  165.8132 S.O2    1  UNL1        0.1340
     10 O         139.2236  139.9197  165.2447 O.2     1  UNL1       -0.1342
     11 O         139.9087  140.1007  167.1229 O.2     1  UNL1       -0.1342
     12 C         141.6417  141.0912  168.1443 C.ar    1  UNL1        0.1296
     13 C         142.4088  139.9456  168.7349 C.ar    1  UNL1        0.1575
     14 F         143.0442  138.9260  167.8367 F       1  UNL1       -0.2027
     15 C         142.5405  139.8193  170.2238 C.ar    1  UNL1        0.0311
     16 C         141.9051  140.8387  171.1221 C.ar    1  UNL1        0.0047
     17 C         141.1379  141.9845  170.5315 C.ar    1  UNL1        0.0311
     18 C         141.0062  142.1107  169.0427 C.ar    1  UNL1        0.1575
     19 F         140.2391  143.2565  168.4521 F       1  UNL1       -0.2027
     20 C         139.8397  140.6152  163.2040 C.3     1  UNL1        0.1198
     21 C         139.0942  141.6694  162.4403 C.3     1  UNL1        0.0541
     22 C         137.7924  142.1972  162.9664 C.3     1  UNL1        0.1280
     23 O         136.6002  141.2921  163.0627 O.3     1  UNL1       -0.3830
     24 H         136.8400  140.4068  162.7470 H       1  UNL1        0.2104
     25 C         137.6830  143.6301  163.3961 C.3     1  UNL1        0.0982
     26 C         139.2229  145.4289  162.3269 C.3     1  UNL1        0.0859
     27 N         137.8974  144.7304  162.3994 N.3     1  UNL1       -0.2943
     28 H         137.7247  144.3302  161.4772 H       1  UNL1        0.1234
@<TRIPOS>BOND
     1    26    27    1
     2    27    25    1
     3    25    22    1
     4    22    23    1
     5    22    21    1
     6    21    20    1
     7    20     1    1
     8     1     2    1
     9     2     3   ar
    10     3     4   ar
    11     4     5   ar
    12     5     6   ar
    13     6     7   ar
    14     7     8    1
    15     8    12    1
    16    12    13   ar
    17    13    14    1
    18    13    15   ar
    19    15    16   ar
    20    16    17   ar
    21    17    18   ar
    22    18    19    1
    23     8     9    1
    24     9    10    2
    25     9    11    2
    26     9     1    1
    27     7     2   ar
    28    18    12   ar
    29    27    28    1
    30    23    24    1
@<TRIPOS>MOLECULE
*****
 28 30 0 0 0
SMALL
GASTEIGER

@<TRIPOS>ATOM
      1 N         140.5881  142.3153  164.2978 N.pl3   1  UNL1       -0.1766
      2 C         141.5479  141.2284  163.9139 C.ar    1  UNL1        0.0853
      3 C         141.9760  140.6925  162.5799 C.ar    1  UNL1        0.0175
      4 C         142.9747  139.5757  162.5058 C.ar    1  UNL1        0.0014
      5 C         143.5451  138.9948  163.7656 C.ar    1  UNL1        0.0014
      6 C         143.1169  139.5307  165.0996 C.ar    1  UNL1        0.0179
      7 C         142.1183  140.6475  165.1737 C.ar    1  UNL1        0.0899
      8 N         141.5111  141.3754  166.3362 N.pl3   1  UNL1       -0.1511
      9 S         140.5654  142.4062  165.7948 S.O2    1  UNL1        0.1340
     10 O         139.5715  143.5040  165.5560 O.2     1  UNL1       -0.1342
     11 O         140.3349  142.7266  167.2420 O.2     1  UNL1       -0.1342
     12 C         141.7991  141.1178  167.7855 C.ar    1  UNL1        0.1296
     13 C         140.9287  140.1796  168.5679 C.ar    1  UNL1        0.1575
     14 F         139.7703  139.4989  167.9010 F       1  UNL1       -0.2027
     15 C         141.2167  139.9220  170.0173 C.ar    1  UNL1        0.0311
     16 C         142.3751  140.6026  170.6843 C.ar    1  UNL1        0.0047
     17 C         143.2455  141.5408  169.9020 C.ar    1  UNL1        0.0311
     18 C         142.9575  141.7985  168.4526 C.ar    1  UNL1        0.1575
     19 F         143.8279  142.7367  167.6702 F       1  UNL1       -0.2027
     20 C         139.7910  143.1626  163.3508 C.3     1  UNL1        0.1198
     21 C         140.4928  144.0297  162.3478 C.3     1  UNL1        0.0541
     22 C         141.1131  145.3252  162.7802 C.3     1  UNL1        0.1280
     23 O         140.4344  146.6246  162.4624 O.3     1  UNL1       -0.3830
     24 H         139.6126  146.4501  161.9777 H       1  UNL1        0.2104
     25 C         142.4120  145.3213  163.5302 C.3     1  UNL1        0.0982
     26 C         144.2970  143.8540  162.5083 C.3     1  UNL1        0.0859
     27 N         143.7084  145.2058  162.7844 N.3     1  UNL1       -0.2943
     28 H         143.5689  145.6566  161.8801 H       1  UNL1        0.1234
@<TRIPOS>BOND
     1    26    27    1
     2    27    25    1
     3    25    22    1
     4    22    23    1
     5    22    21    1
     6    21    20    1
     7    20     1    1
     8     1     2    1
     9     2     3   ar
    10     3     4   ar
    11     4     5   ar
    12     5     6   ar
    13     6     7   ar
    14     7     8    1
    15     8    12    1
    16    12    13   ar
    17    13    14    1
    18    13    15   ar
    19    15    16   ar
    20    16    17   ar
    21    17    18   ar
    22    18    19    1
    23     8     9    1
    24     9    10    2
    25     9    11    2
    26     9     1    1
    27     7     2   ar
    28    18    12   ar
    29    27    28    1
    30    23    24    1
@<TRIPOS>MOLECULE
*****
 28 30 0 0 0
SMALL
GASTEIGER

@<TRIPOS>ATOM
      1 N         140.6828  141.0242  164.3783 N.pl3   1  UNL1       -0.1766
      2 C         141.9231  141.8670  164.3396 C.ar    1  UNL1        0.0853
      3 C         142.6563  142.5223  163.2070 C.ar    1  UNL1        0.0175
      4 C         143.8965  143.3210  163.4788 C.ar    1  UNL1        0.0014
      5 C         144.4034  143.4645  164.8833 C.ar    1  UNL1        0.0014
      6 C         143.6701  142.8092  166.0159 C.ar    1  UNL1        0.0179
      7 C         142.4300  142.0104  165.7441 C.ar    1  UNL1        0.0899
      8 N         141.5030  141.2563  166.6507 N.pl3   1  UNL1       -0.1511
      9 S         140.4231  140.6468  165.8066 S.O2    1  UNL1        0.1340
     10 O         139.2373  139.9269  165.2362 O.2     1  UNL1       -0.1342
     11 O         139.9156  140.1189  167.1157 O.2     1  UNL1       -0.1342
     12 C         141.6330  141.1334  168.1400 C.ar    1  UNL1        0.1296
     13 C         141.0150  142.1665  169.0347 C.ar    1  UNL1        0.1575
     14 F         140.2669  143.3228  168.4401 F       1  UNL1       -0.2027
     15 C         141.1450  142.0436  170.5240 C.ar    1  UNL1        0.0311
     16 C         141.8931  140.8874  171.1186 C.ar    1  UNL1        0.0047
     17 C         142.5111  139.8541  170.2239 C.ar    1  UNL1        0.0311
     18 C         142.3811  139.9771  168.7346 C.ar    1  UNL1        0.1575
     19 F         142.9991  138.9438  167.8400 F       1  UNL1       -0.2027
     20 C         139.8486  140.6283  163.1962 C.3     1  UNL1        0.1198
     21 C         139.1078  141.6744  162.4169 C.3     1  UNL1        0.0541
     22 C         137.8261  142.2408  162.9521 C.3     1  UNL1        0.1280
     23 O         136.6221  141.3592  163.1040 O.3     1  UNL1       -0.3830
     24 H         136.8411  140.4600  162.8134 H       1  UNL1        0.2104
     25 C         137.7485  143.6889  163.3353 C.3     1  UNL1        0.0982
     26 C         139.4951  145.4057  162.4678 C.3     1  UNL1        0.0859
     27 N         138.1521  144.7475  162.3522 N.3     1  UNL1       -0.2943
     28 H         138.1120  144.3205  161.4268 H       1  UNL1        0.1234
@<TRIPOS>BOND
     1    26    27    1
     2    27    25    1
     3    25    22    1
     4    22    23    1
     5    22    21    1
     6    21    20    1
     7    20     1    1
     8     1     2    1
     9     2     3   ar
    10     3     4   ar
    11     4     5   ar
    12     5     6   ar
    13     6     7   ar
    14     7     8    1
    15     8    12    1
    16    12    13   ar
    17    13    14    1
    18    13    15   ar
    19    15    16   ar
    20    16    17   ar
    21    17    18   ar
    22    18    19    1
    23     8     9    1
    24     9    10    2
    25     9    11    2
    26     9     1    1
    27     7     2   ar
    28    18    12   ar
    29    27    28    1
    30    23    24    1
@<TRIPOS>MOLECULE
*****
 28 30 0 0 0
SMALL
GASTEIGER

@<TRIPOS>ATOM
      1 N         140.9044  140.5367  166.9734 N.pl3   1  UNL1       -0.1766
      2 C         141.2566  139.7677  165.7346 C.ar    1  UNL1        0.0853
      3 C         141.7316  138.3600  165.5282 C.ar    1  UNL1        0.0175
      4 C         142.0091  137.8577  164.1424 C.ar    1  UNL1        0.0014
      5 C         141.8115  138.7632  162.9629 C.ar    1  UNL1        0.0014
      6 C         141.3365  140.1709  163.1693 C.ar    1  UNL1        0.0179
      7 C         141.0590  140.6732  164.5552 C.ar    1  UNL1        0.0899
      8 N         140.5847  142.0017  165.0650 N.pl3   1  UNL1       -0.1511
      9 S         140.4892  141.9174  166.5596 S.O2    1  UNL1        0.1340
     10 O         140.2985  142.1311  168.0320 O.2     1  UNL1       -0.1342
     11 O         140.0341  143.3428  166.4536 O.2     1  UNL1       -0.1342
     12 C         140.2626  143.2036  164.2274 C.ar    1  UNL1        0.1296
     13 C         141.3470  144.1705  163.8545 C.ar    1  UNL1        0.1575
     14 F         142.7537  143.9356  164.3193 F       1  UNL1       -0.2027
     15 C         141.0248  145.3724  163.0168 C.ar    1  UNL1        0.0311
     16 C         139.6182  145.6074  162.5520 C.ar    1  UNL1        0.0047
     17 C         138.5337  144.6405  162.9248 C.ar    1  UNL1        0.0311
     18 C         138.8558  143.4386  163.7625 C.ar    1  UNL1        0.1575
     19 F         137.7714  142.4717  164.1353 F       1  UNL1       -0.2027
     20 C         140.9581  140.0164  168.3792 C.3     1  UNL1        0.1198
     21 C         142.2781  139.6644  168.9988 C.3     1  UNL1        0.0541
     22 C         142.5454  140.0003  170.4361 C.3     1  UNL1        0.1280
     23 O         143.7318  139.4076  171.1368 O.3     1  UNL1       -0.3830
     24 H         144.2171  138.8346  170.5226 H       1  UNL1        0.2104
     25 C         141.6262  140.9291  171.1726 C.3     1  UNL1        0.0982
     26 C         142.7744  143.1845  170.5853 C.3     1  UNL1        0.0859
     27 N         142.1072  142.2883  171.5862 N.3     1  UNL1       -0.2943
     28 H         141.2942  142.7938  171.9383 H       1  UNL1        0.1234
@<TRIPOS>BOND
     1    26    27    1
     2    27    25    1
     3    25    22    1
     4    22    23    1
     5    22    21    1
     6    21    20    1
     7    20     1    1
     8     1     2    1
     9     2     3   ar
    10     3     4   ar
    11     4     5   ar
    12     5     6   ar
    13     6     7   ar
    14     7     8    1
    15     8    12    1
    16    12    13   ar
    17    13    14    1
    18    13    15   ar
    19    15    16   ar
    20    16    17   ar
    21    17    18   ar
    22    18    19    1
    23     8     9    1
    24     9    10    2
    25     9    11    2
    26     9     1    1
    27     7     2   ar
    28    18    12   ar
    29    27    28    1
    30    23    24    1
@<TRIPOS>MOLECULE
*****
 28 30 0 0 0
SMALL
GASTEIGER

@<TRIPOS>ATOM
      1 N         140.9912  142.4432  164.5685 N.pl3   1  UNL1       -0.1766
      2 C         141.7767  141.1713  164.4452 C.ar    1  UNL1        0.0853
      3 C         142.3670  140.4671  163.2596 C.ar    1  UNL1        0.0175
      4 C         143.1171  139.1819  163.4476 C.ar    1  UNL1        0.0014
      5 C         143.2771  138.6008  164.8212 C.ar    1  UNL1        0.0014
      6 C         142.6868  139.3050  166.0068 C.ar    1  UNL1        0.0179
      7 C         141.9366  140.5902  165.8188 C.ar    1  UNL1        0.0899
      8 N         141.2500  141.5031  166.7910 N.pl3   1  UNL1       -0.1511
      9 S         140.6657  142.6483  166.0184 S.O2    1  UNL1        0.1340
     10 O         139.9836  143.8907  165.5273 O.2     1  UNL1       -0.1342
     11 O         140.1976  143.1130  167.3655 O.2     1  UNL1       -0.1342
     12 C         141.1630  141.3054  168.2754 C.ar    1  UNL1        0.1296
     13 C         142.2057  141.9013  169.1739 C.ar    1  UNL1        0.1575
     14 F         143.3357  142.6951  168.5880 F       1  UNL1       -0.2027
     15 C         142.1187  141.7036  170.6582 C.ar    1  UNL1        0.0311
     16 C         140.9888  140.9099  171.2442 C.ar    1  UNL1        0.0047
     17 C         139.9460  140.3138  170.3457 C.ar    1  UNL1        0.0311
     18 C         140.0330  140.5115  168.8614 C.ar    1  UNL1        0.1575
     19 F         138.9902  139.9155  167.9629 F       1  UNL1       -0.2027
     20 C         140.6000  143.3508  163.4401 C.3     1  UNL1        0.1198
     21 C         139.6125  142.8854  162.4113 C.3     1  UNL1        0.0541
     22 C         138.1410  143.0214  162.6686 C.3     1  UNL1        0.1280
     23 O         137.4667  144.3484  162.4832 O.3     1  UNL1       -0.3830
     24 H         138.1199  145.0058  162.1968 H       1  UNL1        0.2104
     25 C         137.3440  141.8304  163.1114 C.3     1  UNL1        0.0982
     26 C         138.2583  139.9744  164.6830 C.3     1  UNL1        0.0859
     27 N         137.5321  141.2729  164.4912 N.3     1  UNL1       -0.2943
     28 H         138.0409  141.9767  165.0262 H       1  UNL1        0.1234
@<TRIPOS>BOND
     1    26    27    1
     2    27    25    1
     3    25    22    1
     4    22    23    1
     5    22    21    1
     6    21    20    1
     7    20     1    1
     8     1     2    1
     9     2     3   ar
    10     3     4   ar
    11     4     5   ar
    12     5     6   ar
    13     6     7   ar
    14     7     8    1
    15     8    12    1
    16    12    13   ar
    17    13    14    1
    18    13    15   ar
    19    15    16   ar
    20    16    17   ar
    21    17    18   ar
    22    18    19    1
    23     8     9    1
    24     9    10    2
    25     9    11    2
    26     9     1    1
    27     7     2   ar
    28    18    12   ar
    29    27    28    1
    30    23    24    1
