@<TRIPOS>MOLECULE
*****
 25 26 0 0 0
SMALL
GASTEIGER

@<TRIPOS>ATOM
      1 C         141.9124  137.9756  162.5845 C.ar    1  UNL1        0.1320
      2 N         142.0146  139.0710  163.6041 N.ar    1  UNL1       -0.2298
      3 C         141.4693  138.5498  164.9007 C.ar    1  UNL1        0.0996
      4 C         141.0302  137.1323  164.6825 C.ar    1  UNL1        0.0927
      5 N         141.3040  136.7773  163.2510 N.ar    1  UNL1       -0.3386
      6 H         141.1172  135.9102  162.8239 H       1  UNL1        0.1672
      7 C         141.3791  139.3124  166.1892 C.ar    1  UNL1        0.0194
      8 C         140.0680  139.8964  166.6249 C.ar    1  UNL1        0.0047
      9 C         139.9778  140.6590  167.9134 C.ar    1  UNL1        0.0372
     10 C         141.1988  140.8375  168.7663 C.ar    1  UNL1        0.1468
     11 C         142.5099  140.2535  168.3306 C.ar    1  UNL1        0.0372
     12 C         142.6001  139.4910  167.0421 C.ar    1  UNL1        0.0047
     13 O         141.1085  141.6001  170.0549 O.3     1  UNL1       -0.4045
     14 C         140.7976  143.0674  170.0378 C.3     1  UNL1        0.5753
     15 F         140.4867  144.5348  170.0208 F       1  UNL1       -0.1328
     16 F         139.3870  142.7734  170.4546 F       1  UNL1       -0.1328
     17 F         142.2082  143.3614  169.6211 F       1  UNL1       -0.1328
     18 C         142.3430  138.0629  161.1503 C.3     1  UNL1        0.1176
     19 C         142.7736  138.1503  159.7161 C.3     1  UNL1        0.0258
     20 N         143.7054  137.5626  161.5289 N.3     1  UNL1       -0.3157
     21 H         144.2903  137.5052  160.6952 H       1  UNL1        0.1192
     22 H         143.6229  136.6375  161.9506 H       1  UNL1        0.1192
     23 C         140.9805  138.5633  160.7717 C.3     1  UNL1        0.1635
     24 C         138.4741  138.3921  161.4338 C.3     1  UNL1        0.1742
     25 O         139.7678  137.7299  161.0629 O.3     1  UNL1       -0.3493
@<TRIPOS>BOND
     1    24    25    1
     2    25    23    1
     3    23    18    1
     4    18    19    1
     5    18    20    1
     6    18     1    1
     7     1     2   ar
     8     2     3   ar
     9     3     7    1
    10     7     8   ar
    11     8     9   ar
    12     9    10   ar
    13    10    13    1
    14    13    14    1
    15    14    15    1
    16    14    16    1
    17    14    17    1
    18    10    11   ar
    19    11    12   ar
    20     3     4   ar
    21     4     5   ar
    22     5     1   ar
    23    12     7   ar
    24    20    21    1
    25    20    22    1
    26     5     6    1
@<TRIPOS>MOLECULE
*****
 25 26 0 0 0
SMALL
GASTEIGER

@<TRIPOS>ATOM
      1 C         143.5721  143.4528  161.9482 C.ar    1  UNL1        0.1320
      2 N         143.0965  142.5662  163.0608 N.ar    1  UNL1       -0.2298
      3 C         142.8730  143.4221  164.2722 C.ar    1  UNL1        0.0996
      4 C         143.2105  144.8376  163.9084 C.ar    1  UNL1        0.0927
      5 N         143.6426  144.8566  162.4722 N.ar    1  UNL1       -0.3386
      6 H         143.9232  145.6510  161.9628 H       1  UNL1        0.1672
      7 C         142.3958  142.9459  165.6123 C.ar    1  UNL1        0.0194
      8 C         140.9273  142.9099  165.9161 C.ar    1  UNL1        0.0047
      9 C         140.4502  142.4338  167.2561 C.ar    1  UNL1        0.0372
     10 C         141.4415  141.9936  168.2922 C.ar    1  UNL1        0.1468
     11 C         142.9099  142.0296  167.9884 C.ar    1  UNL1        0.0372
     12 C         143.3871  142.5057  166.6484 C.ar    1  UNL1        0.0047
     13 O         140.9643  141.5175  169.6322 O.3     1  UNL1       -0.4045
     14 C         139.6015  140.9058  169.7691 C.3     1  UNL1        0.5753
     15 F         138.2387  140.2940  169.9060 F       1  UNL1       -0.1328
     16 F         140.1018  139.6471  169.1246 F       1  UNL1       -0.1328
     17 F         139.1013  142.1645  170.4137 F       1  UNL1       -0.1328
     18 C         143.9168  143.0129  160.5563 C.3     1  UNL1        0.1176
     19 C         144.2614  142.5729  159.1643 C.3     1  UNL1        0.0258
     20 N         145.3019  142.6598  161.0108 N.3     1  UNL1       -0.3157
     21 H         145.8369  142.2977  160.2214 H       1  UNL1        0.1192
     22 H         145.2495  141.9491  161.7406 H       1  UNL1        0.1192
     23 C         142.5316  143.3660  160.1017 C.3     1  UNL1        0.1635
     24 C         140.7209  145.2245  160.2331 C.3     1  UNL1        0.1742
     25 O         142.1341  144.8050  159.9559 O.3     1  UNL1       -0.3493
@<TRIPOS>BOND
     1    24    25    1
     2    25    23    1
     3    23    18    1
     4    18    19    1
     5    18    20    1
     6    18     1    1
     7     1     2   ar
     8     2     3   ar
     9     3     7    1
    10     7     8   ar
    11     8     9   ar
    12     9    10   ar
    13    10    13    1
    14    13    14    1
    15    14    15    1
    16    14    16    1
    17    14    17    1
    18    10    11   ar
    19    11    12   ar
    20     3     4   ar
    21     4     5   ar
    22     5     1   ar
    23    12     7   ar
    24    20    21    1
    25    20    22    1
    26     5     6    1
@<TRIPOS>MOLECULE
*****
 25 26 0 0 0
SMALL
GASTEIGER

@<TRIPOS>ATOM
      1 C         139.5056  144.4333  162.6789 C.ar    1  UNL1        0.1320
      2 N         140.2367  143.5198  163.6176 N.ar    1  UNL1       -0.2298
      3 C         139.3075  143.1707  164.7422 C.ar    1  UNL1        0.0996
      4 C         138.0022  143.8684  164.4986 C.ar    1  UNL1        0.0927
      5 N         138.1246  144.6487  163.2234 N.ar    1  UNL1       -0.3386
      6 H         137.4219  145.2046  162.8154 H       1  UNL1        0.1672
      7 C         139.6275  142.2802  165.9062 C.ar    1  UNL1        0.0194
      8 C         140.3978  142.8205  167.0743 C.ar    1  UNL1        0.0047
      9 C         140.7178  141.9301  168.2382 C.ar    1  UNL1        0.0372
     10 C         140.2674  140.4993  168.2339 C.ar    1  UNL1        0.1468
     11 C         139.4972  139.9589  167.0657 C.ar    1  UNL1        0.0372
     12 C         139.1772  140.8494  165.9019 C.ar    1  UNL1        0.0047
     13 O         140.5875  139.6088  169.3978 O.3     1  UNL1       -0.4045
     14 C         141.9235  139.7073  170.0725 C.3     1  UNL1        0.5753
     15 F         143.2597  139.8059  170.7471 F       1  UNL1       -0.1328
     16 F         142.5442  138.9173  168.9587 F       1  UNL1       -0.1328
     17 F         141.3028  140.4974  171.1862 F       1  UNL1       -0.1328
     18 C         140.0585  145.0270  161.4172 C.3     1  UNL1        0.1176
     19 C         140.6113  145.6208  160.1556 C.3     1  UNL1        0.0258
     20 N         140.3225  146.3151  162.1391 N.3     1  UNL1       -0.3157
     21 H         140.7368  146.9877  161.4939 H       1  UNL1        0.1192
     22 H         140.9654  146.1456  162.9127 H       1  UNL1        0.1192
     23 C         139.7944  143.7389  160.6953 C.3     1  UNL1        0.1635
     24 C         138.2575  141.6457  160.7736 C.3     1  UNL1        0.1742
     25 O         138.4212  143.1356  160.7158 O.3     1  UNL1       -0.3493
@<TRIPOS>BOND
     1    24    25    1
     2    25    23    1
     3    23    18    1
     4    18    19    1
     5    18    20    1
     6    18     1    1
     7     1     2   ar
     8     2     3   ar
     9     3     7    1
    10     7     8   ar
    11     8     9   ar
    12     9    10   ar
    13    10    13    1
    14    13    14    1
    15    14    15    1
    16    14    16    1
    17    14    17    1
    18    10    11   ar
    19    11    12   ar
    20     3     4   ar
    21     4     5   ar
    22     5     1   ar
    23    12     7   ar
    24    20    21    1
    25    20    22    1
    26     5     6    1
@<TRIPOS>MOLECULE
*****
 25 26 0 0 0
SMALL
GASTEIGER

@<TRIPOS>ATOM
      1 C         138.5889  139.0825  162.6091 C.ar    1  UNL1        0.1320
      2 N         139.1361  139.9878  163.6725 N.ar    1  UNL1       -0.2298
      3 C         139.5115  139.1421  164.8532 C.ar    1  UNL1        0.0996
      4 C         139.1963  137.7141  164.5194 C.ar    1  UNL1        0.0927
      5 N         138.6261  137.6772  163.1325 N.ar    1  UNL1       -0.3386
      6 H         138.3285  136.8720  162.6505 H       1  UNL1        0.1672
      7 C         140.0990  139.6375  166.1414 C.ar    1  UNL1        0.0194
      8 C         139.2153  139.8568  167.3334 C.ar    1  UNL1        0.0047
      9 C         139.8028  140.3522  168.6215 C.ar    1  UNL1        0.0372
     10 C         141.2740  140.6283  168.7177 C.ar    1  UNL1        0.1468
     11 C         142.1577  140.4090  167.5257 C.ar    1  UNL1        0.0372
     12 C         141.5702  139.9137  166.2376 C.ar    1  UNL1        0.0047
     13 O         141.8615  141.1238  170.0059 O.3     1  UNL1       -0.4045
     14 C         143.2152  141.7698  170.0135 C.3     1  UNL1        0.5753
     15 F         144.5690  142.4159  170.0210 F       1  UNL1       -0.1328
     16 F         142.6097  143.0445  169.5052 F       1  UNL1       -0.1328
     17 F         143.8207  140.4951  170.5218 F       1  UNL1       -0.1328
     18 C         138.0917  139.5077  161.2593 C.3     1  UNL1        0.1176
     19 C         137.5946  139.9329  159.9094 C.3     1  UNL1        0.0258
     20 N         137.2013  140.5256  161.9079 N.3     1  UNL1       -0.3157
     21 H         136.6807  141.0290  161.1895 H       1  UNL1        0.1192
     22 H         137.7695  141.1844  162.4404 H       1  UNL1        0.1192
     23 C         138.9822  138.4897  160.6106 C.3     1  UNL1        0.1635
     24 C         141.4647  138.6309  159.8573 C.3     1  UNL1        0.1742
     25 O         140.4446  138.4523  160.9425 O.3     1  UNL1       -0.3493
@<TRIPOS>BOND
     1    24    25    1
     2    25    23    1
     3    23    18    1
     4    18    19    1
     5    18    20    1
     6    18     1    1
     7     1     2   ar
     8     2     3   ar
     9     3     7    1
    10     7     8   ar
    11     8     9   ar
    12     9    10   ar
    13    10    13    1
    14    13    14    1
    15    14    15    1
    16    14    16    1
    17    14    17    1
    18    10    11   ar
    19    11    12   ar
    20     3     4   ar
    21     4     5   ar
    22     5     1   ar
    23    12     7   ar
    24    20    21    1
    25    20    22    1
    26     5     6    1
@<TRIPOS>MOLECULE
*****
 25 26 0 0 0
SMALL
GASTEIGER

@<TRIPOS>ATOM
      1 C         143.4020  138.8683  162.3331 C.ar    1  UNL1        0.1320
      2 N         142.5213  139.2849  163.4736 N.ar    1  UNL1       -0.2298
      3 C         143.4012  139.7920  164.5775 C.ar    1  UNL1        0.0996
      4 C         144.8258  139.6888  164.1193 C.ar    1  UNL1        0.0927
      5 N         144.8263  139.1179  162.7322 N.ar    1  UNL1       -0.3386
      6 H         145.6218  138.9386  162.1805 H       1  UNL1        0.1672
      7 C         142.9378  140.3112  165.9064 C.ar    1  UNL1        0.0194
      8 C         142.6773  141.7770  166.0895 C.ar    1  UNL1        0.0047
      9 C         142.2140  142.2961  167.4183 C.ar    1  UNL1        0.0372
     10 C         142.0112  141.3494  168.5640 C.ar    1  UNL1        0.1468
     11 C         142.2717  139.8836  168.3809 C.ar    1  UNL1        0.0372
     12 C         142.7350  139.3645  167.0521 C.ar    1  UNL1        0.0047
     13 O         141.5478  141.8686  169.8929 O.3     1  UNL1       -0.4045
     14 C         141.0843  143.2892  170.0228 C.3     1  UNL1        0.5753
     15 F         140.6208  144.7099  170.1528 F       1  UNL1       -0.1328
     16 F         142.4776  143.7107  170.3847 F       1  UNL1       -0.1328
     17 F         139.6910  142.8677  169.6609 F       1  UNL1       -0.1328
     18 C         142.9397  138.3015  161.0235 C.3     1  UNL1        0.1176
     19 C         142.4774  137.7348  159.7139 C.3     1  UNL1        0.0258
     20 N         142.1388  137.2653  161.7547 N.3     1  UNL1       -0.3157
     21 H         141.6608  136.6671  161.0808 H       1  UNL1        0.1192
     22 H         141.4497  137.7255  162.3495 H       1  UNL1        0.1192
     23 C         143.7407  139.3378  160.2923 C.3     1  UNL1        0.1635
     24 C         144.2730  141.8792  160.3807 C.3     1  UNL1        0.1742
     25 O         143.2765  140.7639  160.2664 O.3     1  UNL1       -0.3493
@<TRIPOS>BOND
     1    24    25    1
     2    25    23    1
     3    23    18    1
     4    18    19    1
     5    18    20    1
     6    18     1    1
     7     1     2   ar
     8     2     3   ar
     9     3     7    1
    10     7     8   ar
    11     8     9   ar
    12     9    10   ar
    13    10    13    1
    14    13    14    1
    15    14    15    1
    16    14    16    1
    17    14    17    1
    18    10    11   ar
    19    11    12   ar
    20     3     4   ar
    21     4     5   ar
    22     5     1   ar
    23    12     7   ar
    24    20    21    1
    25    20    22    1
    26     5     6    1
@<TRIPOS>MOLECULE
*****
 25 26 0 0 0
SMALL
GASTEIGER

@<TRIPOS>ATOM
      1 C         139.1608  143.5794  161.6114 C.ar    1  UNL1        0.1320
      2 N         139.8086  142.6965  162.6365 N.ar    1  UNL1       -0.2298
      3 C         138.9098  142.6425  163.8363 C.ar    1  UNL1        0.0996
      4 C         137.7065  143.4920  163.5527 C.ar    1  UNL1        0.0927
      5 N         137.8616  144.0710  162.1776 N.ar    1  UNL1       -0.3386
      6 H         137.2228  144.6687  161.7261 H       1  UNL1        0.1672
      7 C         139.1690  141.8739  165.0981 C.ar    1  UNL1        0.0194
      8 C         138.5524  140.5203  165.2918 C.ar    1  UNL1        0.0047
      9 C         138.8116  139.7518  166.5536 C.ar    1  UNL1        0.0372
     10 C         139.6872  140.3369  167.6217 C.ar    1  UNL1        0.1468
     11 C         140.3038  141.6905  167.4280 C.ar    1  UNL1        0.0372
     12 C         140.0446  142.4590  166.1663 C.ar    1  UNL1        0.0047
     13 O         139.9463  139.5683  168.8836 O.3     1  UNL1       -0.4045
     14 C         140.2194  140.2995  170.1645 C.3     1  UNL1        0.5753
     15 F         140.4925  141.0307  171.4454 F       1  UNL1       -0.1328
     16 F         141.6089  139.7352  170.1904 F       1  UNL1       -0.1328
     17 F         138.8298  140.8638  170.1385 F       1  UNL1       -0.1328
     18 C         139.7148  143.9122  160.2578 C.3     1  UNL1        0.1176
     19 C         140.2688  144.2450  158.9042 C.3     1  UNL1        0.0258
     20 N         138.6395  143.0873  159.6149 N.3     1  UNL1       -0.3157
     21 H         138.7510  143.1137  158.6014 H       1  UNL1        0.1192
     22 H         137.7257  143.4642  159.8664 H       1  UNL1        0.1192
     23 C         140.7900  144.7371  160.9007 C.3     1  UNL1        0.1635
     24 C         143.0438  143.5257  161.3508 C.3     1  UNL1        0.1742
     25 O         142.2289  144.4982  160.5507 O.3     1  UNL1       -0.3493
@<TRIPOS>BOND
     1    24    25    1
     2    25    23    1
     3    23    18    1
     4    18    19    1
     5    18    20    1
     6    18     1    1
     7     1     2   ar
     8     2     3   ar
     9     3     7    1
    10     7     8   ar
    11     8     9   ar
    12     9    10   ar
    13    10    13    1
    14    13    14    1
    15    14    15    1
    16    14    16    1
    17    14    17    1
    18    10    11   ar
    19    11    12   ar
    20     3     4   ar
    21     4     5   ar
    22     5     1   ar
    23    12     7   ar
    24    20    21    1
    25    20    22    1
    26     5     6    1
@<TRIPOS>MOLECULE
*****
 25 26 0 0 0
SMALL
GASTEIGER

@<TRIPOS>ATOM
      1 C         141.6541  144.5958  162.0921 C.ar    1  UNL1        0.1320
      2 N         141.0254  143.7815  163.1837 N.ar    1  UNL1       -0.2298
      3 C         142.0470  143.5883  164.2650 C.ar    1  UNL1        0.0996
      4 C         143.3071  144.2832  163.8416 C.ar    1  UNL1        0.0927
      5 N         143.0643  144.9059  162.4988 N.ar    1  UNL1       -0.3386
      6 H         143.7161  145.4266  161.9761 H       1  UNL1        0.1672
      7 C         141.8440  142.8327  165.5449 C.ar    1  UNL1        0.0194
      8 C         143.0284  142.4130  166.3639 C.ar    1  UNL1        0.0047
      9 C         142.8254  141.6575  167.6437 C.ar    1  UNL1        0.0372
     10 C         141.4380  141.3218  168.1045 C.ar    1  UNL1        0.1468
     11 C         140.2535  141.7416  167.2855 C.ar    1  UNL1        0.0372
     12 C         140.4566  142.4971  166.0056 C.ar    1  UNL1        0.0047
     13 O         141.2350  140.5663  169.3844 O.3     1  UNL1       -0.4045
     14 C         142.4201  140.1300  170.1938 C.3     1  UNL1        0.5753
     15 F         143.6052  139.6937  171.0033 F       1  UNL1       -0.1328
     16 F         142.4759  138.8462  169.4201 F       1  UNL1       -0.1328
     17 F         142.3642  141.4138  170.9675 F       1  UNL1       -0.1328
     18 C         140.9895  145.0247  160.8177 C.3     1  UNL1        0.1176
     19 C         140.3248  145.4537  159.5433 C.3     1  UNL1        0.0258
     20 N         140.3758  146.1929  161.5309 N.3     1  UNL1       -0.3157
     21 H         139.8105  146.7327  160.8755 H       1  UNL1        0.1192
     22 H         141.1140  146.7852  161.9112 H       1  UNL1        0.1192
     23 C         141.6032  143.8566  160.1044 C.3     1  UNL1        0.1635
     24 C         143.3486  143.2245  158.2867 C.3     1  UNL1        0.1742
     25 O         142.9886  143.9660  159.5399 O.3     1  UNL1       -0.3493
@<TRIPOS>BOND
     1    24    25    1
     2    25    23    1
     3    23    18    1
     4    18    19    1
     5    18    20    1
     6    18     1    1
     7     1     2   ar
     8     2     3   ar
     9     3     7    1
    10     7     8   ar
    11     8     9   ar
    12     9    10   ar
    13    10    13    1
    14    13    14    1
    15    14    15    1
    16    14    16    1
    17    14    17    1
    18    10    11   ar
    19    11    12   ar
    20     3     4   ar
    21     4     5   ar
    22     5     1   ar
    23    12     7   ar
    24    20    21    1
    25    20    22    1
    26     5     6    1
@<TRIPOS>MOLECULE
*****
 25 26 0 0 0
SMALL
GASTEIGER

@<TRIPOS>ATOM
      1 C         138.4266  141.5148  162.3253 C.ar    1  UNL1        0.1320
      2 N         139.3615  141.9447  163.4166 N.ar    1  UNL1       -0.2298
      3 C         138.9842  141.2075  164.6674 C.ar    1  UNL1        0.0996
      4 C         137.8161  140.3220  164.3490 C.ar    1  UNL1        0.0927
      5 N         137.4715  140.5119  162.9016 N.ar    1  UNL1       -0.3386
      6 H         136.7458  140.0580  162.4151 H       1  UNL1        0.1672
      7 C         139.6570  141.3337  166.0021 C.ar    1  UNL1        0.0194
      8 C         139.4967  140.2514  167.0281 C.ar    1  UNL1        0.0047
      9 C         140.1695  140.3776  168.3628 C.ar    1  UNL1        0.0372
     10 C         141.0026  141.5863  168.6715 C.ar    1  UNL1        0.1468
     11 C         141.1629  142.6686  167.6454 C.ar    1  UNL1        0.0372
     12 C         140.4901  142.5423  166.3108 C.ar    1  UNL1        0.0047
     13 O         141.6753  141.7125  170.0062 O.3     1  UNL1       -0.4045
     14 C         143.0862  142.2146  170.0905 C.3     1  UNL1        0.5753
     15 F         144.4972  142.7168  170.1747 F       1  UNL1       -0.1328
     16 F         142.5778  143.5918  170.3981 F       1  UNL1       -0.1328
     17 F         143.5947  140.8374  169.7828 F       1  UNL1       -0.1328
     18 C         138.4437  142.0021  160.9068 C.3     1  UNL1        0.1176
     19 C         138.4609  142.4895  159.4883 C.3     1  UNL1        0.0258
     20 N         137.6765  143.2239  161.3173 N.3     1  UNL1       -0.3157
     21 H         137.5135  143.8133  160.5009 H       1  UNL1        0.1192
     22 H         138.2126  143.7449  162.0112 H       1  UNL1        0.1192
     23 C         139.2110  140.7804  160.4963 C.3     1  UNL1        0.1635
     24 C         139.3059  138.1940  160.7241 C.3     1  UNL1        0.1742
     25 O         138.5272  139.4461  160.4487 O.3     1  UNL1       -0.3493
@<TRIPOS>BOND
     1    24    25    1
     2    25    23    1
     3    23    18    1
     4    18    19    1
     5    18    20    1
     6    18     1    1
     7     1     2   ar
     8     2     3   ar
     9     3     7    1
    10     7     8   ar
    11     8     9   ar
    12     9    10   ar
    13    10    13    1
    14    13    14    1
    15    14    15    1
    16    14    16    1
    17    14    17    1
    18    10    11   ar
    19    11    12   ar
    20     3     4   ar
    21     4     5   ar
    22     5     1   ar
    23    12     7   ar
    24    20    21    1
    25    20    22    1
    26     5     6    1
@<TRIPOS>MOLECULE
*****
 25 26 0 0 0
SMALL
GASTEIGER

@<TRIPOS>ATOM
      1 C         141.5040  144.3744  161.9976 C.ar    1  UNL1        0.1320
      2 N         141.0679  143.5373  163.1633 N.ar    1  UNL1       -0.2298
      3 C         142.0407  143.7594  164.2833 C.ar    1  UNL1        0.0996
      4 C         143.0781  144.7338  163.8097 C.ar    1  UNL1        0.0927
      5 N         142.7464  145.1140  162.3971 N.ar    1  UNL1       -0.3386
      6 H         143.2549  145.7391  161.8315 H       1  UNL1        0.1672
      7 C         141.9857  143.1193  165.6388 C.ar    1  UNL1        0.0194
      8 C         143.2473  142.6405  166.2938 C.ar    1  UNL1        0.0047
      9 C         143.1923  142.0005  167.6493 C.ar    1  UNL1        0.0372
     10 C         141.8757  141.8394  168.3498 C.ar    1  UNL1        0.1468
     11 C         140.6142  142.3182  167.6947 C.ar    1  UNL1        0.0372
     12 C         140.6692  142.9582  166.3393 C.ar    1  UNL1        0.0047
     13 O         141.8208  141.1994  169.7053 O.3     1  UNL1       -0.4045
     14 C         140.5400  140.5929  170.1970 C.3     1  UNL1        0.5753
     15 F         139.2591  139.9864  170.6887 F       1  UNL1       -0.1328
     16 F         140.7500  139.4155  169.2918 F       1  UNL1       -0.1328
     17 F         140.3300  141.7704  171.1022 F       1  UNL1       -0.1328
     18 C         140.8182  144.4575  160.6661 C.3     1  UNL1        0.1176
     19 C         140.1324  144.5406  159.3347 C.3     1  UNL1        0.0258
     20 N         142.0482  145.0766  160.0713 N.3     1  UNL1       -0.3157
     21 H         141.8873  145.2702  159.0828 H       1  UNL1        0.1192
     22 H         142.8336  144.4331  160.1682 H       1  UNL1        0.1192
     23 C         139.5883  143.8384  161.2610 C.3     1  UNL1        0.1635
     24 C         137.7146  144.2267  163.0185 C.3     1  UNL1        0.1742
     25 O         138.5185  144.7107  161.8482 O.3     1  UNL1       -0.3493
@<TRIPOS>BOND
     1    24    25    1
     2    25    23    1
     3    23    18    1
     4    18    19    1
     5    18    20    1
     6    18     1    1
     7     1     2   ar
     8     2     3   ar
     9     3     7    1
    10     7     8   ar
    11     8     9   ar
    12     9    10   ar
    13    10    13    1
    14    13    14    1
    15    14    15    1
    16    14    16    1
    17    14    17    1
    18    10    11   ar
    19    11    12   ar
    20     3     4   ar
    21     4     5   ar
    22     5     1   ar
    23    12     7   ar
    24    20    21    1
    25    20    22    1
    26     5     6    1
